OpenDSS/Loads_ckt5.dss


New Linecode.defaultSecondary nphases=1 rmatrix=0.25  xmatrix=0.076 cmatrix=3 units=kft

New Line.S_MDV201_1144260FUSE-1B0  bus1=X_1144260.2  bus2=X_1144260_1.2  linecode=defaultSecondary  phases=1  length=100  units=ft
New Load.MDV201_1144260FUSE-1B0  phases=1  bus1=X_1144260_1.2  kv=0.24  kW=6.381454  pf=0.934155012608757  status=variable model=1 CVRwatts=0.8 CVRvars=3 Class=1 yearly=Residential   conn=wye   !xfkVA=25
New Line.S_MDV201_HN_2_461_C62251-1C0  bus1=X_62251.3  bus2=X_62251_1.3  linecode=defaultSecondary  phases=1  length=100  units=ft
New Load.MDV201_HN_2_461_C62251-1C0  phases=1  bus1=X_62251_1.3  kv=0.24  kW=3.86385  pf=0.93002958168504  status=variable model=1 CVRwatts=0.8 CVRvars=3 Class=1 yearly=Residential   conn=wye   !xfkVA=12.3333333333333
New Line.S_MDV201_HN_2_461_C62251-1C1  bus1=X_62251.3  bus2=X_62251_2.3  linecode=defaultSecondary  phases=1  length=100  units=ft
New Load.MDV201_HN_2_461_C62251-1C1  phases=1  bus1=X_62251_2.3  kv=0.24  kW=3.86385  pf=0.93002958168504  status=variable model=1 CVRwatts=0.8 CVRvars=3 Class=1 yearly=Residential   conn=wye   !xfkVA=12.3333333333333
New Line.S_MDV201_HN_2_461_C62251-1C2  bus1=X_62251.3  bus2=X_62251_3.3  linecode=defaultSecondary  phases=1  length=100  units=ft
New Load.MDV201_HN_2_461_C62251-1C2  phases=1  bus1=X_62251_3.3  kv=0.24  kW=3.86385  pf=0.93002958168504  status=variable model=1 CVRwatts=0.8 CVRvars=3 Class=1 yearly=Residential   conn=wye   !xfkVA=12.3333333333333
New Line.S_MDV201_6569ELB-1B0  bus1=X_6569.2  bus2=X_6569_1.2  linecode=defaultSecondary  phases=1  length=100  units=ft
New Load.MDV201_6569ELB-1B0  phases=1  bus1=X_6569_1.2  kv=0.24  kW=7.802753  pf=0.934154989242921  status=variable model=1 CVRwatts=0.8 CVRvars=3 Class=1 yearly=Residential   conn=wye   !xfkVA=12.3333333333333
New Line.S_MDV201_6569ELB-1B1  bus1=X_6569.2  bus2=X_6569_2.2  linecode=defaultSecondary  phases=1  length=100  units=ft
New Load.MDV201_6569ELB-1B1  phases=1  bus1=X_6569_2.2  kv=0.24  kW=7.802753  pf=0.934154989242921  status=variable model=1 CVRwatts=0.8 CVRvars=3 Class=1 yearly=Residential   conn=wye   !xfkVA=12.3333333333333
New Line.S_MDV201_6569ELB-1B2  bus1=X_6569.2  bus2=X_6569_3.2  linecode=defaultSecondary  phases=1  length=100  units=ft
New Load.MDV201_6569ELB-1B2  phases=1  bus1=X_6569_3.2  kv=0.24  kW=7.802753  pf=0.934154989242921  status=variable model=1 CVRwatts=0.8 CVRvars=3 Class=1 yearly=Residential   conn=wye   !xfkVA=12.3333333333333
New Line.S_MDV201_HN_2_464_C62232-1C0  bus1=X_62232.3  bus2=X_62232_1.3  linecode=defaultSecondary  phases=1  length=100  units=ft
New Load.MDV201_HN_2_464_C62232-1C0  phases=1  bus1=X_62232_1.3  kv=0.24  kW=6.567842  pf=0.930029584365006  status=variable model=1 CVRwatts=0.8 CVRvars=3 Class=1 yearly=Residential   conn=wye   !xfkVA=12.5
New Line.S_MDV201_HN_2_464_C62232-1C1  bus1=X_62232.3  bus2=X_62232_2.3  linecode=defaultSecondary  phases=1  length=100  units=ft
New Load.MDV201_HN_2_464_C62232-1C1  phases=1  bus1=X_62232_2.3  kv=0.24  kW=6.567842  pf=0.930029584365006  status=variable model=1 CVRwatts=0.8 CVRvars=3 Class=1 yearly=Residential   conn=wye   !xfkVA=12.5
New Line.S_MDV201_HN_2_849_B94730-1B0  bus1=X_94730.2  bus2=X_94730_1.2  linecode=defaultSecondary  phases=1  length=100  units=ft
New Load.MDV201_HN_2_849_B94730-1B0  phases=1  bus1=X_94730_1.2  kv=0.24  kW=2.73706266666667  pf=0.934154979245437  status=variable model=1 CVRwatts=0.8 CVRvars=3 Class=1 yearly=Residential   conn=wye   !xfkVA=8.33333333333333
New Line.S_MDV201_HN_2_849_B94730-1B1  bus1=X_94730.2  bus2=X_94730_2.2  linecode=defaultSecondary  phases=1  length=100  units=ft
New Load.MDV201_HN_2_849_B94730-1B1  phases=1  bus1=X_94730_2.2  kv=0.24  kW=2.73706266666667  pf=0.934154979245437  status=variable model=1 CVRwatts=0.8 CVRvars=3 Class=1 yearly=Residential   conn=wye   !xfkVA=8.33333333333333
New Line.S_MDV201_HN_2_849_B94730-1B2  bus1=X_94730.2  bus2=X_94730_3.2  linecode=defaultSecondary  phases=1  length=100  units=ft
New Load.MDV201_HN_2_849_B94730-1B2  phases=1  bus1=X_94730_3.2  kv=0.24  kW=2.73706266666667  pf=0.934154979245437  status=variable model=1 CVRwatts=0.8 CVRvars=3 Class=1 yearly=Residential   conn=wye   !xfkVA=8.33333333333333
New Line.S_MDV201_HN_2_683_A39601-1A0  bus1=X_39601.1  bus2=X_39601_1.1  linecode=defaultSecondary  phases=1  length=100  units=ft
New Load.MDV201_HN_2_683_A39601-1A0  phases=1  bus1=X_39601_1.1  kv=0.24  kW=4.7720405  pf=0.923378475077987  status=variable model=1 CVRwatts=0.8 CVRvars=3 Class=1 yearly=Residential   conn=wye   !xfkVA=12.5
New Line.S_MDV201_HN_2_683_A39601-1A1  bus1=X_39601.1  bus2=X_39601_2.1  linecode=defaultSecondary  phases=1  length=100  units=ft
New Load.MDV201_HN_2_683_A39601-1A1  phases=1  bus1=X_39601_2.1  kv=0.24  kW=4.7720405  pf=0.923378475077987  status=variable model=1 CVRwatts=0.8 CVRvars=3 Class=1 yearly=Residential   conn=wye   !xfkVA=12.5
New Line.S_MDV201_HN_2_093_ABC63714-1B0  bus1=X_63714.2  bus2=X_63714_1.2  linecode=defaultSecondary  phases=1  length=100  units=ft
New Load.MDV201_HN_2_093_ABC63714-1B0  phases=1  bus1=X_63714_1.2  kv=0.24  kW=2.1843735  pf=0.934155028324536  status=variable model=1 CVRwatts=0.8 CVRvars=3 Class=1 yearly=Residential   conn=wye   !xfkVA=7.5
New Line.S_MDV201_HN_2_093_ABC63714-1B1  bus1=X_63714.2  bus2=X_63714_2.2  linecode=defaultSecondary  phases=1  length=100  units=ft
New Load.MDV201_HN_2_093_ABC63714-1B1  phases=1  bus1=X_63714_2.2  kv=0.24  kW=2.1843735  pf=0.934155028324536  status=variable model=1 CVRwatts=0.8 CVRvars=3 Class=1 yearly=Residential   conn=wye   !xfkVA=7.5
New Line.S_MDV201_HN_2_414_A843-1A0  bus1=X_843.1  bus2=X_843_1.1  linecode=defaultSecondary  phases=1  length=100  units=ft
New Load.MDV201_HN_2_414_A843-1A0  phases=1  bus1=X_843_1.1  kv=0.24  kW=8.29048  pf=0.923378453926181  status=variable model=1 CVRwatts=0.8 CVRvars=3 Class=1 yearly=Residential   conn=wye   !xfkVA=25
New Line.S_MDV201_HN_2_523_C856-1C0  bus1=X_856.3  bus2=X_856_1.3  linecode=defaultSecondary  phases=1  length=100  units=ft
New Load.MDV201_HN_2_523_C856-1C0  phases=1  bus1=X_856_1.3  kv=0.24  kW=6.153331  pf=0.930029602327355  status=variable model=1 CVRwatts=0.8 CVRvars=3 Class=1 yearly=Residential   conn=wye   !xfkVA=25
New Line.S_MDV201_DA_8_946_B56776-1B0  bus1=X_56776.2  bus2=X_56776_1.2  linecode=defaultSecondary  phases=1  length=100  units=ft
New Load.MDV201_DA_8_946_B56776-1B0  phases=1  bus1=X_56776_1.2  kv=0.24  kW=13.788792  pf=0.934154989230338  status=variable model=1 CVRwatts=0.8 CVRvars=3 Class=1 yearly=Residential   conn=wye   !xfkVA=25
New Line.S_MDV201_HN_2_398_B63633-1B0  bus1=X_63633.2  bus2=X_63633_1.2  linecode=defaultSecondary  phases=1  length=100  units=ft
New Load.MDV201_HN_2_398_B63633-1B0  phases=1  bus1=X_63633_1.2  kv=0.24  kW=4.31940566666667  pf=0.934154995283602  status=variable model=1 CVRwatts=0.8 CVRvars=3 Class=1 yearly=Residential   conn=wye   !xfkVA=8.33333333333333
New Line.S_MDV201_HN_2_398_B63633-1B1  bus1=X_63633.2  bus2=X_63633_2.2  linecode=defaultSecondary  phases=1  length=100  units=ft
New Load.MDV201_HN_2_398_B63633-1B1  phases=1  bus1=X_63633_2.2  kv=0.24  kW=4.31940566666667  pf=0.934154995283602  status=variable model=1 CVRwatts=0.8 CVRvars=3 Class=1 yearly=Residential   conn=wye   !xfkVA=8.33333333333333
New Line.S_MDV201_HN_2_398_B63633-1B2  bus1=X_63633.2  bus2=X_63633_3.2  linecode=defaultSecondary  phases=1  length=100  units=ft
New Load.MDV201_HN_2_398_B63633-1B2  phases=1  bus1=X_63633_3.2  kv=0.24  kW=4.31940566666667  pf=0.934154995283602  status=variable model=1 CVRwatts=0.8 CVRvars=3 Class=1 yearly=Residential   conn=wye   !xfkVA=8.33333333333333
New Line.S_MDV201_DA_8_924_A56786-1A0  bus1=X_56786.1  bus2=X_56786_1.1  linecode=defaultSecondary  phases=1  length=100  units=ft
New Load.MDV201_DA_8_924_A56786-1A0  phases=1  bus1=X_56786_1.1  kv=0.24  kW=7.092247  pf=0.923378472776721  status=variable model=1 CVRwatts=0.8 CVRvars=3 Class=1 yearly=Residential   conn=wye   !xfkVA=12.5
New Line.S_MDV201_DA_8_924_A56786-1A1  bus1=X_56786.1  bus2=X_56786_2.1  linecode=defaultSecondary  phases=1  length=100  units=ft
New Load.MDV201_DA_8_924_A56786-1A1  phases=1  bus1=X_56786_2.1  kv=0.24  kW=7.092247  pf=0.923378472776721  status=variable model=1 CVRwatts=0.8 CVRvars=3 Class=1 yearly=Residential   conn=wye   !xfkVA=12.5
New Line.S_MDV201_HN_2_955_B39752-1B0  bus1=X_39752.2  bus2=X_39752_1.2  linecode=defaultSecondary  phases=1  length=100  units=ft
New Load.MDV201_HN_2_955_B39752-1B0  phases=1  bus1=X_39752_1.2  kv=0.24  kW=4.383138  pf=0.934155005146229  status=variable model=1 CVRwatts=0.8 CVRvars=3 Class=1 yearly=Residential   conn=wye   !xfkVA=12.5
New Line.S_MDV201_HN_2_955_B39752-1B1  bus1=X_39752.2  bus2=X_39752_2.2  linecode=defaultSecondary  phases=1  length=100  units=ft
New Load.MDV201_HN_2_955_B39752-1B1  phases=1  bus1=X_39752_2.2  kv=0.24  kW=4.383138  pf=0.934155005146229  status=variable model=1 CVRwatts=0.8 CVRvars=3 Class=1 yearly=Residential   conn=wye   !xfkVA=12.5
New Line.S_MDV201_HN_2_843_B69621-1B0  bus1=X_69621.2  bus2=X_69621_1.2  linecode=defaultSecondary  phases=1  length=100  units=ft
New Load.MDV201_HN_2_843_B69621-1B0  phases=1  bus1=X_69621_1.2  kv=0.24  kW=4.34716  pf=0.934154995968254  status=variable model=1 CVRwatts=0.8 CVRvars=3 Class=1 yearly=Residential   conn=wye   !xfkVA=6.25
New Line.S_MDV201_HN_2_843_B69621-1B1  bus1=X_69621.2  bus2=X_69621_2.2  linecode=defaultSecondary  phases=1  length=100  units=ft
New Load.MDV201_HN_2_843_B69621-1B1  phases=1  bus1=X_69621_2.2  kv=0.24  kW=4.34716  pf=0.934154995968254  status=variable model=1 CVRwatts=0.8 CVRvars=3 Class=1 yearly=Residential   conn=wye   !xfkVA=6.25
New Line.S_MDV201_HN_2_843_B69621-1B2  bus1=X_69621.2  bus2=X_69621_3.2  linecode=defaultSecondary  phases=1  length=100  units=ft
New Load.MDV201_HN_2_843_B69621-1B2  phases=1  bus1=X_69621_3.2  kv=0.24  kW=4.34716  pf=0.934154995968254  status=variable model=1 CVRwatts=0.8 CVRvars=3 Class=1 yearly=Residential   conn=wye   !xfkVA=6.25
New Line.S_MDV201_HN_2_843_B69621-1B3  bus1=X_69621.2  bus2=X_69621_4.2  linecode=defaultSecondary  phases=1  length=100  units=ft
New Load.MDV201_HN_2_843_B69621-1B3  phases=1  bus1=X_69621_4.2  kv=0.24  kW=4.34716  pf=0.934154995968254  status=variable model=1 CVRwatts=0.8 CVRvars=3 Class=1 yearly=Residential   conn=wye   !xfkVA=6.25
New Line.S_MDV201_HN_2_675_C89783-1C0  bus1=X_89783.3  bus2=X_89783_1.3  linecode=defaultSecondary  phases=1  length=100  units=ft
New Load.MDV201_HN_2_675_C89783-1C0  phases=1  bus1=X_89783_1.3  kv=0.24  kW=6.61249233333333  pf=0.930029590072491  status=variable model=1 CVRwatts=0.8 CVRvars=3 Class=1 yearly=Residential   conn=wye   !xfkVA=8.33333333333333
New Line.S_MDV201_HN_2_675_C89783-1C1  bus1=X_89783.3  bus2=X_89783_2.3  linecode=defaultSecondary  phases=1  length=100  units=ft
New Load.MDV201_HN_2_675_C89783-1C1  phases=1  bus1=X_89783_2.3  kv=0.24  kW=6.61249233333333  pf=0.930029590072491  status=variable model=1 CVRwatts=0.8 CVRvars=3 Class=1 yearly=Residential   conn=wye   !xfkVA=8.33333333333333
New Line.S_MDV201_HN_2_675_C89783-1C2  bus1=X_89783.3  bus2=X_89783_3.3  linecode=defaultSecondary  phases=1  length=100  units=ft
New Load.MDV201_HN_2_675_C89783-1C2  phases=1  bus1=X_89783_3.3  kv=0.24  kW=6.61249233333333  pf=0.930029590072491  status=variable model=1 CVRwatts=0.8 CVRvars=3 Class=1 yearly=Residential   conn=wye   !xfkVA=8.33333333333333
New Line.S_MDV201_HN_2_403_B792-1B0  bus1=X_792.2  bus2=X_792_1.2  linecode=defaultSecondary  phases=1  length=100  units=ft
New Load.MDV201_HN_2_403_B792-1B0  phases=1  bus1=X_792_1.2  kv=0.24  kW=5.3751005  pf=0.934154990026798  status=variable model=1 CVRwatts=0.8 CVRvars=3 Class=1 yearly=Residential   conn=wye   !xfkVA=12.5
New Line.S_MDV201_HN_2_403_B792-1B1  bus1=X_792.2  bus2=X_792_2.2  linecode=defaultSecondary  phases=1  length=100  units=ft
New Load.MDV201_HN_2_403_B792-1B1  phases=1  bus1=X_792_2.2  kv=0.24  kW=5.3751005  pf=0.934154990026798  status=variable model=1 CVRwatts=0.8 CVRvars=3 Class=1 yearly=Residential   conn=wye   !xfkVA=12.5
New Line.S_MDV201_HN_2_528_C8154-1C0  bus1=X_8154.3  bus2=X_8154_1.3  linecode=defaultSecondary  phases=1  length=100  units=ft
New Load.MDV201_HN_2_528_C8154-1C0  phases=1  bus1=X_8154_1.3  kv=0.24  kW=3.8065425  pf=0.930029592239751  status=variable model=1 CVRwatts=0.8 CVRvars=3 Class=1 yearly=Residential   conn=wye   !xfkVA=12.5
New Line.S_MDV201_HN_2_528_C8154-1C1  bus1=X_8154.3  bus2=X_8154_2.3  linecode=defaultSecondary  phases=1  length=100  units=ft
New Load.MDV201_HN_2_528_C8154-1C1  phases=1  bus1=X_8154_2.3  kv=0.24  kW=3.8065425  pf=0.930029592239751  status=variable model=1 CVRwatts=0.8 CVRvars=3 Class=1 yearly=Residential   conn=wye   !xfkVA=12.5
New Line.S_MDV201_C_1_370_B69485-1B0  bus1=X_69485.2  bus2=X_69485_1.2  linecode=defaultSecondary  phases=1  length=100  units=ft
New Load.MDV201_C_1_370_B69485-1B0  phases=1  bus1=X_69485_1.2  kv=0.24  kW=2.24433666666667  pf=0.934155013809861  status=variable model=1 CVRwatts=0.8 CVRvars=3 Class=1 yearly=Residential   conn=wye   !xfkVA=5
New Line.S_MDV201_C_1_370_B69485-1B1  bus1=X_69485.2  bus2=X_69485_2.2  linecode=defaultSecondary  phases=1  length=100  units=ft
New Load.MDV201_C_1_370_B69485-1B1  phases=1  bus1=X_69485_2.2  kv=0.24  kW=2.24433666666667  pf=0.934155013809861  status=variable model=1 CVRwatts=0.8 CVRvars=3 Class=1 yearly=Residential   conn=wye   !xfkVA=5
New Line.S_MDV201_C_1_370_B69485-1B2  bus1=X_69485.2  bus2=X_69485_3.2  linecode=defaultSecondary  phases=1  length=100  units=ft
New Load.MDV201_C_1_370_B69485-1B2  phases=1  bus1=X_69485_3.2  kv=0.24  kW=2.24433666666667  pf=0.934155013809861  status=variable model=1 CVRwatts=0.8 CVRvars=3 Class=1 yearly=Residential   conn=wye   !xfkVA=5
New Line.S_MDV201_HN_2_949_C8180-1C0  bus1=X_8180.3  bus2=X_8180_1.3  linecode=defaultSecondary  phases=1  length=100  units=ft
New Load.MDV201_HN_2_949_C8180-1C0  phases=1  bus1=X_8180_1.3  kv=0.24  kW=6.803048  pf=0.930029590717425  status=variable model=1 CVRwatts=0.8 CVRvars=3 Class=1 yearly=Residential   conn=wye   !xfkVA=8.33333333333333
New Line.S_MDV201_HN_2_949_C8180-1C1  bus1=X_8180.3  bus2=X_8180_2.3  linecode=defaultSecondary  phases=1  length=100  units=ft
New Load.MDV201_HN_2_949_C8180-1C1  phases=1  bus1=X_8180_2.3  kv=0.24  kW=6.803048  pf=0.930029590717425  status=variable model=1 CVRwatts=0.8 CVRvars=3 Class=1 yearly=Residential   conn=wye   !xfkVA=8.33333333333333
New Line.S_MDV201_HN_2_949_C8180-1C2  bus1=X_8180.3  bus2=X_8180_3.3  linecode=defaultSecondary  phases=1  length=100  units=ft
New Load.MDV201_HN_2_949_C8180-1C2  phases=1  bus1=X_8180_3.3  kv=0.24  kW=6.803048  pf=0.930029590717425  status=variable model=1 CVRwatts=0.8 CVRvars=3 Class=1 yearly=Residential   conn=wye   !xfkVA=8.33333333333333
New Line.S_MDV201_HN_2_837_B39584-1B0  bus1=X_39584.2  bus2=X_39584_1.2  linecode=defaultSecondary  phases=1  length=100  units=ft
New Load.MDV201_HN_2_837_B39584-1B0  phases=1  bus1=X_39584_1.2  kv=0.24  kW=5.470699  pf=0.934155001971601  status=variable model=1 CVRwatts=0.8 CVRvars=3 Class=1 yearly=Residential   conn=wye   !xfkVA=12.5
New Line.S_MDV201_HN_2_837_B39584-1B1  bus1=X_39584.2  bus2=X_39584_2.2  linecode=defaultSecondary  phases=1  length=100  units=ft
New Load.MDV201_HN_2_837_B39584-1B1  phases=1  bus1=X_39584_2.2  kv=0.24  kW=5.470699  pf=0.934155001971601  status=variable model=1 CVRwatts=0.8 CVRvars=3 Class=1 yearly=Residential   conn=wye   !xfkVA=12.5
New Line.S_MDV201_HN_2_669_C89789-1C0  bus1=X_89789.3  bus2=X_89789_1.3  linecode=defaultSecondary  phases=1  length=100  units=ft
New Load.MDV201_HN_2_669_C89789-1C0  phases=1  bus1=X_89789_1.3  kv=0.24  kW=3.328747  pf=0.930029603172601  status=variable model=1 CVRwatts=0.8 CVRvars=3 Class=1 yearly=Residential   conn=wye   !xfkVA=25
New Line.S_MDV201_HN_2_433_B787-1B0  bus1=X_787.2  bus2=X_787_1.2  linecode=defaultSecondary  phases=1  length=100  units=ft
New Load.MDV201_HN_2_433_B787-1B0  phases=1  bus1=X_787_1.2  kv=0.24  kW=4.2519726  pf=0.934154987995112  status=variable model=1 CVRwatts=0.8 CVRvars=3 Class=1 yearly=Residential   conn=wye   !xfkVA=10
New Line.S_MDV201_HN_2_433_B787-1B1  bus1=X_787.2  bus2=X_787_2.2  linecode=defaultSecondary  phases=1  length=100  units=ft
New Load.MDV201_HN_2_433_B787-1B1  phases=1  bus1=X_787_2.2  kv=0.24  kW=4.2519726  pf=0.934154987995112  status=variable model=1 CVRwatts=0.8 CVRvars=3 Class=1 yearly=Residential   conn=wye   !xfkVA=10
New Line.S_MDV201_HN_2_433_B787-1B2  bus1=X_787.2  bus2=X_787_3.2  linecode=defaultSecondary  phases=1  length=100  units=ft
New Load.MDV201_HN_2_433_B787-1B2  phases=1  bus1=X_787_3.2  kv=0.24  kW=4.2519726  pf=0.934154987995112  status=variable model=1 CVRwatts=0.8 CVRvars=3 Class=1 yearly=Residential   conn=wye   !xfkVA=10
New Line.S_MDV201_HN_2_433_B787-1B3  bus1=X_787.2  bus2=X_787_4.2  linecode=defaultSecondary  phases=1  length=100  units=ft
New Load.MDV201_HN_2_433_B787-1B3  phases=1  bus1=X_787_4.2  kv=0.24  kW=4.2519726  pf=0.934154987995112  status=variable model=1 CVRwatts=0.8 CVRvars=3 Class=1 yearly=Residential   conn=wye   !xfkVA=10
New Line.S_MDV201_HN_2_433_B787-1B4  bus1=X_787.2  bus2=X_787_5.2  linecode=defaultSecondary  phases=1  length=100  units=ft
New Load.MDV201_HN_2_433_B787-1B4  phases=1  bus1=X_787_5.2  kv=0.24  kW=4.2519726  pf=0.934154987995112  status=variable model=1 CVRwatts=0.8 CVRvars=3 Class=1 yearly=Residential   conn=wye   !xfkVA=10
New Line.S_MDV201_HN_2_459_C62259-1C0  bus1=X_62259.3  bus2=X_62259_1.3  linecode=defaultSecondary  phases=1  length=100  units=ft
New Load.MDV201_HN_2_459_C62259-1C0  phases=1  bus1=X_62259_1.3  kv=0.24  kW=7.6943  pf=0.930029578250181  status=variable model=1 CVRwatts=0.8 CVRvars=3 Class=1 yearly=Residential   conn=wye   !xfkVA=12.5
New Line.S_MDV201_HN_2_459_C62259-1C1  bus1=X_62259.3  bus2=X_62259_2.3  linecode=defaultSecondary  phases=1  length=100  units=ft
New Load.MDV201_HN_2_459_C62259-1C1  phases=1  bus1=X_62259_2.3  kv=0.24  kW=7.6943  pf=0.930029578250181  status=variable model=1 CVRwatts=0.8 CVRvars=3 Class=1 yearly=Residential   conn=wye   !xfkVA=12.5
New Line.S_MDV201_HN_2_942_C89791-1C0  bus1=X_89791.3  bus2=X_89791_1.3  linecode=defaultSecondary  phases=1  length=100  units=ft
New Load.MDV201_HN_2_942_C89791-1C0  phases=1  bus1=X_89791_1.3  kv=0.24  kW=6.12872  pf=0.930029588615673  status=variable model=1 CVRwatts=0.8 CVRvars=3 Class=1 yearly=Residential   conn=wye   !xfkVA=8.33333333333333
New Line.S_MDV201_HN_2_942_C89791-1C1  bus1=X_89791.3  bus2=X_89791_2.3  linecode=defaultSecondary  phases=1  length=100  units=ft
New Load.MDV201_HN_2_942_C89791-1C1  phases=1  bus1=X_89791_2.3  kv=0.24  kW=6.12872  pf=0.930029588615673  status=variable model=1 CVRwatts=0.8 CVRvars=3 Class=1 yearly=Residential   conn=wye   !xfkVA=8.33333333333333
New Line.S_MDV201_HN_2_942_C89791-1C2  bus1=X_89791.3  bus2=X_89791_3.3  linecode=defaultSecondary  phases=1  length=100  units=ft
New Load.MDV201_HN_2_942_C89791-1C2  phases=1  bus1=X_89791_3.3  kv=0.24  kW=6.12872  pf=0.930029588615673  status=variable model=1 CVRwatts=0.8 CVRvars=3 Class=1 yearly=Residential   conn=wye   !xfkVA=8.33333333333333
New Line.S_MDV201_HN_2_663_C62247-1C0  bus1=X_62247.3  bus2=X_62247_1.3  linecode=defaultSecondary  phases=1  length=100  units=ft
New Load.MDV201_HN_2_663_C62247-1C0  phases=1  bus1=X_62247_1.3  kv=0.24  kW=7.524488  pf=0.930029612210836  status=variable model=1 CVRwatts=0.8 CVRvars=3 Class=1 yearly=Residential   conn=wye   !xfkVA=25
New Line.S_MDV201_HN_2_159_B6572-1B0  bus1=X_6572.2  bus2=X_6572_1.2  linecode=defaultSecondary  phases=1  length=100  units=ft
New Load.MDV201_HN_2_159_B6572-1B0  phases=1  bus1=X_6572_1.2  kv=0.24  kW=2.900848  pf=0.934155004807888  status=variable model=1 CVRwatts=0.8 CVRvars=3 Class=1 yearly=Residential   conn=wye   !xfkVA=15
New Line.S_MDV201_HN_2_070_A1144231-1A0  bus1=X_1144231.1  bus2=X_1144231_1.1  linecode=defaultSecondary  phases=1  length=100  units=ft
New Load.MDV201_HN_2_070_A1144231-1A0  phases=1  bus1=X_1144231_1.1  kv=0.24  kW=3.065054  pf=0.923378451573029  status=variable model=1 CVRwatts=0.8 CVRvars=3 Class=1 yearly=Residential   conn=wye   !xfkVA=15
New Line.S_MDV201_HN_2_422_A790-1A0  bus1=X_790.1  bus2=X_790_1.1  linecode=defaultSecondary  phases=1  length=100  units=ft
New Load.MDV201_HN_2_422_A790-1A0  phases=1  bus1=X_790_1.1  kv=0.24  kW=5.593149  pf=0.923378476919859  status=variable model=1 CVRwatts=0.8 CVRvars=3 Class=1 yearly=Residential   conn=wye   !xfkVA=12.5
New Line.S_MDV201_HN_2_422_A790-1A1  bus1=X_790.1  bus2=X_790_2.1  linecode=defaultSecondary  phases=1  length=100  units=ft
New Load.MDV201_HN_2_422_A790-1A1  phases=1  bus1=X_790_2.1  kv=0.24  kW=5.593149  pf=0.923378476919859  status=variable model=1 CVRwatts=0.8 CVRvars=3 Class=1 yearly=Residential   conn=wye   !xfkVA=12.5
New Line.S_MDV201_HN_2_389_B63636-1B0  bus1=X_63636.2  bus2=X_63636_1.2  linecode=defaultSecondary  phases=1  length=100  units=ft
New Load.MDV201_HN_2_389_B63636-1B0  phases=1  bus1=X_63636_1.2  kv=0.24  kW=5.10543733333333  pf=0.9341549876945  status=variable model=1 CVRwatts=0.8 CVRvars=3 Class=1 yearly=Residential   conn=wye   !xfkVA=12.3333333333333
New Line.S_MDV201_HN_2_389_B63636-1B1  bus1=X_63636.2  bus2=X_63636_2.2  linecode=defaultSecondary  phases=1  length=100  units=ft
New Load.MDV201_HN_2_389_B63636-1B1  phases=1  bus1=X_63636_2.2  kv=0.24  kW=5.10543733333333  pf=0.9341549876945  status=variable model=1 CVRwatts=0.8 CVRvars=3 Class=1 yearly=Residential   conn=wye   !xfkVA=12.3333333333333
New Line.S_MDV201_HN_2_389_B63636-1B2  bus1=X_63636.2  bus2=X_63636_3.2  linecode=defaultSecondary  phases=1  length=100  units=ft
New Load.MDV201_HN_2_389_B63636-1B2  phases=1  bus1=X_63636_3.2  kv=0.24  kW=5.10543733333333  pf=0.9341549876945  status=variable model=1 CVRwatts=0.8 CVRvars=3 Class=1 yearly=Residential   conn=wye   !xfkVA=12.3333333333333
New Line.S_MDV201_HN_2_936_B14995-1B0  bus1=X_14995.2  bus2=X_14995_1.2  linecode=defaultSecondary  phases=1  length=100  units=ft
New Load.MDV201_HN_2_936_B14995-1B0  phases=1  bus1=X_14995_1.2  kv=0.24  kW=6.17449533333333  pf=0.934154993876732  status=variable model=1 CVRwatts=0.8 CVRvars=3 Class=1 yearly=Residential   conn=wye   !xfkVA=12.3333333333333
New Line.S_MDV201_HN_2_936_B14995-1B1  bus1=X_14995.2  bus2=X_14995_2.2  linecode=defaultSecondary  phases=1  length=100  units=ft
New Load.MDV201_HN_2_936_B14995-1B1  phases=1  bus1=X_14995_2.2  kv=0.24  kW=6.17449533333333  pf=0.934154993876732  status=variable model=1 CVRwatts=0.8 CVRvars=3 Class=1 yearly=Residential   conn=wye   !xfkVA=12.3333333333333
New Line.S_MDV201_HN_2_936_B14995-1B2  bus1=X_14995.2  bus2=X_14995_3.2  linecode=defaultSecondary  phases=1  length=100  units=ft
New Load.MDV201_HN_2_936_B14995-1B2  phases=1  bus1=X_14995_3.2  kv=0.24  kW=6.17449533333333  pf=0.934154993876732  status=variable model=1 CVRwatts=0.8 CVRvars=3 Class=1 yearly=Residential   conn=wye   !xfkVA=12.3333333333333
New Line.S_MDV201_HN_2_821_B39618-1B0  bus1=X_39618.2  bus2=X_39618_1.2  linecode=defaultSecondary  phases=1  length=100  units=ft
New Load.MDV201_HN_2_821_B39618-1B0  phases=1  bus1=X_39618_1.2  kv=0.24  kW=5.17876366666667  pf=0.934154983132325  status=variable model=1 CVRwatts=0.8 CVRvars=3 Class=1 yearly=Residential   conn=wye   !xfkVA=8.33333333333333
New Line.S_MDV201_HN_2_821_B39618-1B1  bus1=X_39618.2  bus2=X_39618_2.2  linecode=defaultSecondary  phases=1  length=100  units=ft
New Load.MDV201_HN_2_821_B39618-1B1  phases=1  bus1=X_39618_2.2  kv=0.24  kW=5.17876366666667  pf=0.934154983132325  status=variable model=1 CVRwatts=0.8 CVRvars=3 Class=1 yearly=Residential   conn=wye   !xfkVA=8.33333333333333
New Line.S_MDV201_HN_2_821_B39618-1B2  bus1=X_39618.2  bus2=X_39618_3.2  linecode=defaultSecondary  phases=1  length=100  units=ft
New Load.MDV201_HN_2_821_B39618-1B2  phases=1  bus1=X_39618_3.2  kv=0.24  kW=5.17876366666667  pf=0.934154983132325  status=variable model=1 CVRwatts=0.8 CVRvars=3 Class=1 yearly=Residential   conn=wye   !xfkVA=8.33333333333333
New Line.S_MDV201_HN_2_656_A14864-1A0  bus1=X_14864.1  bus2=X_14864_1.1  linecode=defaultSecondary  phases=1  length=100  units=ft
New Load.MDV201_HN_2_656_A14864-1A0  phases=1  bus1=X_14864_1.1  kv=0.24  kW=7.009718  pf=0.923378468205523  status=variable model=1 CVRwatts=0.8 CVRvars=3 Class=1 yearly=Residential   conn=wye   !xfkVA=25
New Line.S_MDV201_HN_2_304_A8174-1A0  bus1=X_8174.1  bus2=X_8174_1.1  linecode=defaultSecondary  phases=1  length=100  units=ft
New Load.MDV201_HN_2_304_A8174-1A0  phases=1  bus1=X_8174_1.1  kv=0.24  kW=3.5664945  pf=0.923378487538154  status=variable model=1 CVRwatts=0.8 CVRvars=3 Class=1 yearly=Residential   conn=wye   !xfkVA=12.5
New Line.S_MDV201_HN_2_304_A8174-1A1  bus1=X_8174.1  bus2=X_8174_2.1  linecode=defaultSecondary  phases=1  length=100  units=ft
New Load.MDV201_HN_2_304_A8174-1A1  phases=1  bus1=X_8174_2.1  kv=0.24  kW=3.5664945  pf=0.923378487538154  status=variable model=1 CVRwatts=0.8 CVRvars=3 Class=1 yearly=Residential   conn=wye   !xfkVA=12.5
New Line.S_MDV201_63677FUSE-1A0  bus1=X_63677.1  bus2=X_63677_1.1  linecode=defaultSecondary  phases=1  length=100  units=ft
New Load.MDV201_63677FUSE-1A0  phases=1  bus1=X_63677_1.1  kv=0.24  kW=5.9358  pf=0.92337846383932  status=variable model=1 CVRwatts=0.8 CVRvars=3 Class=1 yearly=Residential   conn=wye   !xfkVA=25
New Line.S_MDV201_HN_2_357_C28293-1C0  bus1=X_28293.3  bus2=X_28293_1.3  linecode=defaultSecondary  phases=1  length=100  units=ft
New Load.MDV201_HN_2_357_C28293-1C0  phases=1  bus1=X_28293_1.3  kv=0.24  kW=3.481684  pf=0.930029587425452  status=variable model=1 CVRwatts=0.8 CVRvars=3 Class=1 yearly=Residential   conn=wye   !xfkVA=7.5
New Line.S_MDV201_HN_2_357_C28293-1C1  bus1=X_28293.3  bus2=X_28293_2.3  linecode=defaultSecondary  phases=1  length=100  units=ft
New Load.MDV201_HN_2_357_C28293-1C1  phases=1  bus1=X_28293_2.3  kv=0.24  kW=3.481684  pf=0.930029587425452  status=variable model=1 CVRwatts=0.8 CVRvars=3 Class=1 yearly=Residential   conn=wye   !xfkVA=7.5
New Line.S_MDV201_HN_2_489_C8104-1C0  bus1=X_8104.3  bus2=X_8104_1.3  linecode=defaultSecondary  phases=1  length=100  units=ft
New Load.MDV201_HN_2_489_C8104-1C0  phases=1  bus1=X_8104_1.3  kv=0.24  kW=10.290006  pf=0.930029582207408  status=variable model=1 CVRwatts=0.8 CVRvars=3 Class=1 yearly=Residential   conn=wye   !xfkVA=15
New Line.S_MDV201_HN_2_650_A28242-1A0  bus1=X_28242.1  bus2=X_28242_1.1  linecode=defaultSecondary  phases=1  length=100  units=ft
New Load.MDV201_HN_2_650_A28242-1A0  phases=1  bus1=X_28242_1.1  kv=0.24  kW=5.027636  pf=0.923378472476117  status=variable model=1 CVRwatts=0.8 CVRvars=3 Class=1 yearly=Residential   conn=wye   !xfkVA=8.33333333333333
New Line.S_MDV201_HN_2_650_A28242-1A1  bus1=X_28242.1  bus2=X_28242_2.1  linecode=defaultSecondary  phases=1  length=100  units=ft
New Load.MDV201_HN_2_650_A28242-1A1  phases=1  bus1=X_28242_2.1  kv=0.24  kW=5.027636  pf=0.923378472476117  status=variable model=1 CVRwatts=0.8 CVRvars=3 Class=1 yearly=Residential   conn=wye   !xfkVA=8.33333333333333
New Line.S_MDV201_HN_2_650_A28242-1A2  bus1=X_28242.1  bus2=X_28242_3.1  linecode=defaultSecondary  phases=1  length=100  units=ft
New Load.MDV201_HN_2_650_A28242-1A2  phases=1  bus1=X_28242_3.1  kv=0.24  kW=5.027636  pf=0.923378472476117  status=variable model=1 CVRwatts=0.8 CVRvars=3 Class=1 yearly=Residential   conn=wye   !xfkVA=8.33333333333333
New Line.S_MDV201_HN_2_537_C8094-1C0  bus1=X_8094.3  bus2=X_8094_1.3  linecode=defaultSecondary  phases=1  length=100  units=ft
New Load.MDV201_HN_2_537_C8094-1C0  phases=1  bus1=X_8094_1.3  kv=0.24  kW=7.2818985  pf=0.930029594453924  status=variable model=1 CVRwatts=0.8 CVRvars=3 Class=1 yearly=Residential   conn=wye   !xfkVA=25
New Line.S_MDV201_HN_2_537_C8094-1C1  bus1=X_8094.3  bus2=X_8094_2.3  linecode=defaultSecondary  phases=1  length=100  units=ft
New Load.MDV201_HN_2_537_C8094-1C1  phases=1  bus1=X_8094_2.3  kv=0.24  kW=7.2818985  pf=0.930029594453924  status=variable model=1 CVRwatts=0.8 CVRvars=3 Class=1 yearly=Residential   conn=wye   !xfkVA=25
New Line.S_MDV201_HN_21095_C1148537-1C0  bus1=X_1148537.3  bus2=X_1148537_1.3  linecode=defaultSecondary  phases=1  length=100  units=ft
New Load.MDV201_HN_21095_C1148537-1C0  phases=1  bus1=X_1148537_1.3  kv=0.24  kW=8.575005  pf=0.930029576029419  status=variable model=1 CVRwatts=0.8 CVRvars=3 Class=1 yearly=Residential   conn=wye   !xfkVA=25
New Line.S_MDV201_HN_2_283_ABC14857-1B0  bus1=X_14857.2  bus2=X_14857_1.2  linecode=defaultSecondary  phases=1  length=100  units=ft
New Load.MDV201_HN_2_283_ABC14857-1B0  phases=1  bus1=X_14857_1.2  kv=0.24  kW=1.813287  pf=0.934155014182833  status=variable  model=1 CVRwatts=0.8 CVRvars=3 Class=2 yearly=Commercial_SM   conn=wye   !xfkVA=12.5
New Line.S_MDV201_HN_2_283_ABC14857-1B1  bus1=X_14857.2  bus2=X_14857_2.2  linecode=defaultSecondary  phases=1  length=100  units=ft
New Load.MDV201_HN_2_283_ABC14857-1B1  phases=1  bus1=X_14857_2.2  kv=0.24  kW=1.813287  pf=0.934155014182833  status=variable  model=1 CVRwatts=0.8 CVRvars=3 Class=2 yearly=Commercial_SM   conn=wye   !xfkVA=12.5
New Line.S_MDV201_DA_8_155_ABC46395-1C0  bus1=X_46395.3  bus2=X_46395_1.3  linecode=defaultSecondary  phases=1  length=100  units=ft
New Load.MDV201_DA_8_155_ABC46395-1C0  phases=1  bus1=X_46395_1.3  kv=0.24  kW=2.252916  pf=0.930029542597534  status=variable model=1 CVRwatts=0.8 CVRvars=3 Class=1 yearly=Residential   conn=wye   !xfkVA=15
New Line.S_MDV201_HN_1_380_C1012407-1C0  bus1=X_1012407.3  bus2=X_1012407_1.3  linecode=defaultSecondary  phases=1  length=100  units=ft
New Load.MDV201_HN_1_380_C1012407-1C0  phases=1  bus1=X_1012407_1.3  kv=0.24  kW=17.26814  pf=0.930029593929019  status=variable  model=1 CVRwatts=0.8 CVRvars=3 Class=2 yearly=Commercial_SM   conn=wye   !xfkVA=37
New Line.S_MDV201_C_1_124_ABC69481-1B0  bus1=X_69481.2  bus2=X_69481_1.2  linecode=defaultSecondary  phases=1  length=100  units=ft
New Load.MDV201_C_1_124_ABC69481-1B0  phases=1  bus1=X_69481_1.2  kv=0.24  kW=7.89526766666667  pf=0.934154987344845  status=variable model=1 CVRwatts=0.8 CVRvars=3 Class=1 yearly=Residential   conn=wye   !xfkVA=12.3333333333333
New Line.S_MDV201_C_1_124_ABC69481-1B1  bus1=X_69481.2  bus2=X_69481_2.2  linecode=defaultSecondary  phases=1  length=100  units=ft
New Load.MDV201_C_1_124_ABC69481-1B1  phases=1  bus1=X_69481_2.2  kv=0.24  kW=7.89526766666667  pf=0.934154987344845  status=variable model=1 CVRwatts=0.8 CVRvars=3 Class=1 yearly=Residential   conn=wye   !xfkVA=12.3333333333333
New Line.S_MDV201_C_1_124_ABC69481-1B2  bus1=X_69481.2  bus2=X_69481_3.2  linecode=defaultSecondary  phases=1  length=100  units=ft
New Load.MDV201_C_1_124_ABC69481-1B2  phases=1  bus1=X_69481_3.2  kv=0.24  kW=7.89526766666667  pf=0.934154987344845  status=variable model=1 CVRwatts=0.8 CVRvars=3 Class=1 yearly=Residential   conn=wye   !xfkVA=12.3333333333333
New Line.S_MDV201_112113FUSE-1A0  bus1=X_112113.1  bus2=X_112113_1.1  linecode=defaultSecondary  phases=1  length=100  units=ft
New Load.MDV201_112113FUSE-1A0  phases=1  bus1=X_112113_1.1  kv=0.24  kW=2.650321  pf=0.923378439976553  status=variable model=1 CVRwatts=0.8 CVRvars=3 Class=1 yearly=Residential   conn=wye   !xfkVA=12.5
New Line.S_MDV201_112113FUSE-1A1  bus1=X_112113.1  bus2=X_112113_2.1  linecode=defaultSecondary  phases=1  length=100  units=ft
New Load.MDV201_112113FUSE-1A1  phases=1  bus1=X_112113_2.1  kv=0.24  kW=2.650321  pf=0.923378439976553  status=variable model=1 CVRwatts=0.8 CVRvars=3 Class=1 yearly=Residential   conn=wye   !xfkVA=12.5
New Line.S_MDV201_C_1_162_A69459-1A0  bus1=X_69459.1  bus2=X_69459_1.1  linecode=defaultSecondary  phases=1  length=100  units=ft
New Load.MDV201_C_1_162_A69459-1A0  phases=1  bus1=X_69459_1.1  kv=0.24  kW=4.126436  pf=0.923378478673357  status=variable model=1 CVRwatts=0.8 CVRvars=3 Class=1 yearly=Residential   conn=wye   !xfkVA=25
New Line.S_MDV201_HN_2_644_A28238-1A0  bus1=X_28238.1  bus2=X_28238_1.1  linecode=defaultSecondary  phases=1  length=100  units=ft
New Load.MDV201_HN_2_644_A28238-1A0  phases=1  bus1=X_28238_1.1  kv=0.24  kW=5.83481566666667  pf=0.923378473329314  status=variable model=1 CVRwatts=0.8 CVRvars=3 Class=1 yearly=Residential   conn=wye   !xfkVA=8.33333333333333
New Line.S_MDV201_HN_2_644_A28238-1A1  bus1=X_28238.1  bus2=X_28238_2.1  linecode=defaultSecondary  phases=1  length=100  units=ft
New Load.MDV201_HN_2_644_A28238-1A1  phases=1  bus1=X_28238_2.1  kv=0.24  kW=5.83481566666667  pf=0.923378473329314  status=variable model=1 CVRwatts=0.8 CVRvars=3 Class=1 yearly=Residential   conn=wye   !xfkVA=8.33333333333333
New Line.S_MDV201_HN_2_644_A28238-1A2  bus1=X_28238.1  bus2=X_28238_3.1  linecode=defaultSecondary  phases=1  length=100  units=ft
New Load.MDV201_HN_2_644_A28238-1A2  phases=1  bus1=X_28238_3.1  kv=0.24  kW=5.83481566666667  pf=0.923378473329314  status=variable model=1 CVRwatts=0.8 CVRvars=3 Class=1 yearly=Residential   conn=wye   !xfkVA=8.33333333333333
New Line.S_MDV201_HN_2_147_C14840-1C0  bus1=X_14840.3  bus2=X_14840_1.3  linecode=defaultSecondary  phases=1  length=100  units=ft
New Load.MDV201_HN_2_147_C14840-1C0  phases=1  bus1=X_14840_1.3  kv=0.24  kW=3.76013433333333  pf=0.930029589914381  status=variable model=1 CVRwatts=0.8 CVRvars=3 Class=1 yearly=Residential   conn=wye   !xfkVA=6.16666666666667
New Line.S_MDV201_HN_2_147_C14840-1C1  bus1=X_14840.3  bus2=X_14840_2.3  linecode=defaultSecondary  phases=1  length=100  units=ft
New Load.MDV201_HN_2_147_C14840-1C1  phases=1  bus1=X_14840_2.3  kv=0.24  kW=3.76013433333333  pf=0.930029589914381  status=variable model=1 CVRwatts=0.8 CVRvars=3 Class=1 yearly=Residential   conn=wye   !xfkVA=6.16666666666667
New Line.S_MDV201_HN_2_147_C14840-1C2  bus1=X_14840.3  bus2=X_14840_3.3  linecode=defaultSecondary  phases=1  length=100  units=ft
New Load.MDV201_HN_2_147_C14840-1C2  phases=1  bus1=X_14840_3.3  kv=0.24  kW=3.76013433333333  pf=0.930029589914381  status=variable model=1 CVRwatts=0.8 CVRvars=3 Class=1 yearly=Residential   conn=wye   !xfkVA=6.16666666666667
New Line.S_MDV201_HN_2_147_C14840-1C3  bus1=X_14840.3  bus2=X_14840_4.3  linecode=defaultSecondary  phases=1  length=100  units=ft
New Load.MDV201_HN_2_147_C14840-1C3  phases=1  bus1=X_14840_4.3  kv=0.24  kW=3.76013433333333  pf=0.930029589914381  status=variable model=1 CVRwatts=0.8 CVRvars=3 Class=1 yearly=Residential   conn=wye   !xfkVA=6.16666666666667
New Line.S_MDV201_HN_2_147_C14840-1C4  bus1=X_14840.3  bus2=X_14840_5.3  linecode=defaultSecondary  phases=1  length=100  units=ft
New Load.MDV201_HN_2_147_C14840-1C4  phases=1  bus1=X_14840_5.3  kv=0.24  kW=3.76013433333333  pf=0.930029589914381  status=variable model=1 CVRwatts=0.8 CVRvars=3 Class=1 yearly=Residential   conn=wye   !xfkVA=6.16666666666667
New Line.S_MDV201_HN_2_147_C14840-1C5  bus1=X_14840.3  bus2=X_14840_6.3  linecode=defaultSecondary  phases=1  length=100  units=ft
New Load.MDV201_HN_2_147_C14840-1C5  phases=1  bus1=X_14840_6.3  kv=0.24  kW=3.76013433333333  pf=0.930029589914381  status=variable model=1 CVRwatts=0.8 CVRvars=3 Class=1 yearly=Residential   conn=wye   !xfkVA=6.16666666666667
New Line.S_MDV201_HN_2_012_C28259-1C0  bus1=X_28259.3  bus2=X_28259_1.3  linecode=defaultSecondary  phases=1  length=100  units=ft
New Load.MDV201_HN_2_012_C28259-1C0  phases=1  bus1=X_28259_1.3  kv=0.24  kW=5.12672066666667  pf=0.930029575649325  status=variable model=1 CVRwatts=0.8 CVRvars=3 Class=1 yearly=Residential   conn=wye   !xfkVA=16.6666666666667
New Line.S_MDV201_HN_2_012_C28259-1C1  bus1=X_28259.3  bus2=X_28259_2.3  linecode=defaultSecondary  phases=1  length=100  units=ft
New Load.MDV201_HN_2_012_C28259-1C1  phases=1  bus1=X_28259_2.3  kv=0.24  kW=5.12672066666667  pf=0.930029575649325  status=variable model=1 CVRwatts=0.8 CVRvars=3 Class=1 yearly=Residential   conn=wye   !xfkVA=16.6666666666667
New Line.S_MDV201_HN_2_012_C28259-1C2  bus1=X_28259.3  bus2=X_28259_3.3  linecode=defaultSecondary  phases=1  length=100  units=ft
New Load.MDV201_HN_2_012_C28259-1C2  phases=1  bus1=X_28259_3.3  kv=0.24  kW=5.12672066666667  pf=0.930029575649325  status=variable model=1 CVRwatts=0.8 CVRvars=3 Class=1 yearly=Residential   conn=wye   !xfkVA=16.6666666666667
New Line.S_MDV201_HN_2_016_ABC63680-1C0  bus1=X_63680.3  bus2=X_63680_1.3  linecode=defaultSecondary  phases=1  length=100  units=ft
New Load.MDV201_HN_2_016_ABC63680-1C0  phases=1  bus1=X_63680_1.3  kv=0.24  kW=5.839019  pf=0.930029559809689  status=variable model=1 CVRwatts=0.8 CVRvars=3 Class=1 yearly=Residential   conn=wye   !xfkVA=15
New Line.S_MDV201_HN_2_408_ABC63655-1B0  bus1=X_63655.2  bus2=X_63655_1.2  linecode=defaultSecondary  phases=1  length=100  units=ft
New Load.MDV201_HN_2_408_ABC63655-1B0  phases=1  bus1=X_63655_1.2  kv=0.24  kW=4.883745  pf=0.934154989624027  status=variable model=1 CVRwatts=0.8 CVRvars=3 Class=1 yearly=Residential   conn=wye   !xfkVA=12.5
New Line.S_MDV201_HN_2_408_ABC63655-1B1  bus1=X_63655.2  bus2=X_63655_2.2  linecode=defaultSecondary  phases=1  length=100  units=ft
New Load.MDV201_HN_2_408_ABC63655-1B1  phases=1  bus1=X_63655_2.2  kv=0.24  kW=4.883745  pf=0.934154989624027  status=variable model=1 CVRwatts=0.8 CVRvars=3 Class=1 yearly=Residential   conn=wye   !xfkVA=12.5
New Line.S_MDV201_1144240FUSE-1A0  bus1=X_1144240.1  bus2=X_1144240_1.1  linecode=defaultSecondary  phases=1  length=100  units=ft
New Load.MDV201_1144240FUSE-1A0  phases=1  bus1=X_1144240_1.1  kv=0.24  kW=5.808351  pf=0.923378497106499  status=variable model=1 CVRwatts=0.8 CVRvars=3 Class=1 yearly=Residential   conn=wye   !xfkVA=25
New Line.S_MDV201_HN_2_907_A39581-1A0  bus1=X_39581.1  bus2=X_39581_1.1  linecode=defaultSecondary  phases=1  length=100  units=ft
New Load.MDV201_HN_2_907_A39581-1A0  phases=1  bus1=X_39581_1.1  kv=0.24  kW=7.2280535  pf=0.923378472912451  status=variable model=1 CVRwatts=0.8 CVRvars=3 Class=1 yearly=Residential   conn=wye   !xfkVA=12.5
New Line.S_MDV201_HN_2_907_A39581-1A1  bus1=X_39581.1  bus2=X_39581_2.1  linecode=defaultSecondary  phases=1  length=100  units=ft
New Load.MDV201_HN_2_907_A39581-1A1  phases=1  bus1=X_39581_2.1  kv=0.24  kW=7.2280535  pf=0.923378472912451  status=variable model=1 CVRwatts=0.8 CVRvars=3 Class=1 yearly=Residential   conn=wye   !xfkVA=12.5
New Line.S_MDV201_HN_2_803_B837-1B0  bus1=X_837.2  bus2=X_837_1.2  linecode=defaultSecondary  phases=1  length=100  units=ft
New Load.MDV201_HN_2_803_B837-1B0  phases=1  bus1=X_837_1.2  kv=0.24  kW=4.86558466666667  pf=0.93415499113741  status=variable model=1 CVRwatts=0.8 CVRvars=3 Class=1 yearly=Residential   conn=wye   !xfkVA=12.3333333333333
New Line.S_MDV201_HN_2_803_B837-1B1  bus1=X_837.2  bus2=X_837_2.2  linecode=defaultSecondary  phases=1  length=100  units=ft
New Load.MDV201_HN_2_803_B837-1B1  phases=1  bus1=X_837_2.2  kv=0.24  kW=4.86558466666667  pf=0.93415499113741  status=variable model=1 CVRwatts=0.8 CVRvars=3 Class=1 yearly=Residential   conn=wye   !xfkVA=12.3333333333333
New Line.S_MDV201_HN_2_803_B837-1B2  bus1=X_837.2  bus2=X_837_3.2  linecode=defaultSecondary  phases=1  length=100  units=ft
New Load.MDV201_HN_2_803_B837-1B2  phases=1  bus1=X_837_3.2  kv=0.24  kW=4.86558466666667  pf=0.93415499113741  status=variable model=1 CVRwatts=0.8 CVRvars=3 Class=1 yearly=Residential   conn=wye   !xfkVA=12.3333333333333
New Line.S_MDV201_HN_2_638_C28237-1C0  bus1=X_28237.3  bus2=X_28237_1.3  linecode=defaultSecondary  phases=1  length=100  units=ft
New Load.MDV201_HN_2_638_C28237-1C0  phases=1  bus1=X_28237_1.3  kv=0.24  kW=4.697795  pf=0.930029596175788  status=variable model=1 CVRwatts=0.8 CVRvars=3 Class=1 yearly=Residential   conn=wye   !xfkVA=12.5
New Line.S_MDV201_HN_2_638_C28237-1C1  bus1=X_28237.3  bus2=X_28237_2.3  linecode=defaultSecondary  phases=1  length=100  units=ft
New Load.MDV201_HN_2_638_C28237-1C1  phases=1  bus1=X_28237_2.3  kv=0.24  kW=4.697795  pf=0.930029596175788  status=variable model=1 CVRwatts=0.8 CVRvars=3 Class=1 yearly=Residential   conn=wye   !xfkVA=12.5
New Line.S_MDV201_HN_2_107_A39589-1A0  bus1=X_39589.1  bus2=X_39589_1.1  linecode=defaultSecondary  phases=1  length=100  units=ft
New Load.MDV201_HN_2_107_A39589-1A0  phases=1  bus1=X_39589_1.1  kv=0.24  kW=6.582449  pf=0.923378474953937  status=variable model=1 CVRwatts=0.8 CVRvars=3 Class=1 yearly=Residential   conn=wye   !xfkVA=12.5
New Line.S_MDV201_HN_2_107_A39589-1A1  bus1=X_39589.1  bus2=X_39589_2.1  linecode=defaultSecondary  phases=1  length=100  units=ft
New Load.MDV201_HN_2_107_A39589-1A1  phases=1  bus1=X_39589_2.1  kv=0.24  kW=6.582449  pf=0.923378474953937  status=variable model=1 CVRwatts=0.8 CVRvars=3 Class=1 yearly=Residential   conn=wye   !xfkVA=12.5
New Line.S_MDV201_DA_8_202_C74456-1C0  bus1=X_74456.3  bus2=X_74456_1.3  linecode=defaultSecondary  phases=1  length=100  units=ft
New Load.MDV201_DA_8_202_C74456-1C0  phases=1  bus1=X_74456_1.3  kv=0.24  kW=4.828582  pf=0.930029606247211  status=variable model=1 CVRwatts=0.8 CVRvars=3 Class=1 yearly=Residential   conn=wye   !xfkVA=25
New Line.S_MDV201_HN_2_029_ABC62262-1B0  bus1=X_62262.2  bus2=X_62262_1.2  linecode=defaultSecondary  phases=1  length=100  units=ft
New Load.MDV201_HN_2_029_ABC62262-1B0  phases=1  bus1=X_62262_1.2  kv=0.24  kW=5.022517  pf=0.934154985137909  status=variable model=1 CVRwatts=0.8 CVRvars=3 Class=1 yearly=Residential   conn=wye   !xfkVA=15
New Line.S_MDV201_HN_2_165_C39776-1C0  bus1=X_39776.3  bus2=X_39776_1.3  linecode=defaultSecondary  phases=1  length=100  units=ft
New Load.MDV201_HN_2_165_C39776-1C0  phases=1  bus1=X_39776_1.3  kv=0.24  kW=4.8981945  pf=0.930029582689667  status=variable model=1 CVRwatts=0.8 CVRvars=3 Class=1 yearly=Residential   conn=wye   !xfkVA=18.5
New Line.S_MDV201_HN_2_165_C39776-1C1  bus1=X_39776.3  bus2=X_39776_2.3  linecode=defaultSecondary  phases=1  length=100  units=ft
New Load.MDV201_HN_2_165_C39776-1C1  phases=1  bus1=X_39776_2.3  kv=0.24  kW=4.8981945  pf=0.930029582689667  status=variable model=1 CVRwatts=0.8 CVRvars=3 Class=1 yearly=Residential   conn=wye   !xfkVA=18.5
New Line.S_MDV201_DA_8_861_B1149720-1B0  bus1=X_1149720.2  bus2=X_1149720_1.2  linecode=defaultSecondary  phases=1  length=100  units=ft
New Load.MDV201_DA_8_861_B1149720-1B0  phases=1  bus1=X_1149720_1.2  kv=0.24  kW=7.4906015  pf=0.93415498890776  status=variable model=1 CVRwatts=0.8 CVRvars=3 Class=1 yearly=Residential   conn=wye   !xfkVA=12.5
New Line.S_MDV201_DA_8_861_B1149720-1B1  bus1=X_1149720.2  bus2=X_1149720_2.2  linecode=defaultSecondary  phases=1  length=100  units=ft
New Load.MDV201_DA_8_861_B1149720-1B1  phases=1  bus1=X_1149720_2.2  kv=0.24  kW=7.4906015  pf=0.93415498890776  status=variable model=1 CVRwatts=0.8 CVRvars=3 Class=1 yearly=Residential   conn=wye   !xfkVA=12.5
New Line.S_MDV201_C_1_409_A8138-1A0  bus1=X_8138.1  bus2=X_8138_1.1  linecode=defaultSecondary  phases=1  length=100  units=ft
New Load.MDV201_C_1_409_A8138-1A0  phases=1  bus1=X_8138_1.1  kv=0.24  kW=3.67514  pf=0.923378465767365  status=variable model=1 CVRwatts=0.8 CVRvars=3 Class=1 yearly=Residential   conn=wye   !xfkVA=12.3333333333333
New Line.S_MDV201_C_1_409_A8138-1A1  bus1=X_8138.1  bus2=X_8138_2.1  linecode=defaultSecondary  phases=1  length=100  units=ft
New Load.MDV201_C_1_409_A8138-1A1  phases=1  bus1=X_8138_2.1  kv=0.24  kW=3.67514  pf=0.923378465767365  status=variable model=1 CVRwatts=0.8 CVRvars=3 Class=1 yearly=Residential   conn=wye   !xfkVA=12.3333333333333
New Line.S_MDV201_C_1_409_A8138-1A2  bus1=X_8138.1  bus2=X_8138_3.1  linecode=defaultSecondary  phases=1  length=100  units=ft
New Load.MDV201_C_1_409_A8138-1A2  phases=1  bus1=X_8138_3.1  kv=0.24  kW=3.67514  pf=0.923378465767365  status=variable model=1 CVRwatts=0.8 CVRvars=3 Class=1 yearly=Residential   conn=wye   !xfkVA=12.3333333333333
New Line.S_MDV201_C_1_399_A21654-1A0  bus1=X_21654.1  bus2=X_21654_1.1  linecode=defaultSecondary  phases=1  length=100  units=ft
New Load.MDV201_C_1_399_A21654-1A0  phases=1  bus1=X_21654_1.1  kv=0.24  kW=4.026148  pf=0.923378451967229  status=variable model=1 CVRwatts=0.8 CVRvars=3 Class=1 yearly=Residential   conn=wye   !xfkVA=18.5
New Line.S_MDV201_C_1_399_A21654-1A1  bus1=X_21654.1  bus2=X_21654_2.1  linecode=defaultSecondary  phases=1  length=100  units=ft
New Load.MDV201_C_1_399_A21654-1A1  phases=1  bus1=X_21654_2.1  kv=0.24  kW=4.026148  pf=0.923378451967229  status=variable model=1 CVRwatts=0.8 CVRvars=3 Class=1 yearly=Residential   conn=wye   !xfkVA=18.5
New Line.S_MDV201_HN_2_632_C28235-1C0  bus1=X_28235.3  bus2=X_28235_1.3  linecode=defaultSecondary  phases=1  length=100  units=ft
New Load.MDV201_HN_2_632_C28235-1C0  phases=1  bus1=X_28235_1.3  kv=0.24  kW=5.4660646  pf=0.930029587175231  status=variable model=1 CVRwatts=0.8 CVRvars=3 Class=1 yearly=Residential   conn=wye   !xfkVA=5
New Line.S_MDV201_HN_2_632_C28235-1C1  bus1=X_28235.3  bus2=X_28235_2.3  linecode=defaultSecondary  phases=1  length=100  units=ft
New Load.MDV201_HN_2_632_C28235-1C1  phases=1  bus1=X_28235_2.3  kv=0.24  kW=5.4660646  pf=0.930029587175231  status=variable model=1 CVRwatts=0.8 CVRvars=3 Class=1 yearly=Residential   conn=wye   !xfkVA=5
New Line.S_MDV201_HN_2_632_C28235-1C2  bus1=X_28235.3  bus2=X_28235_3.3  linecode=defaultSecondary  phases=1  length=100  units=ft
New Load.MDV201_HN_2_632_C28235-1C2  phases=1  bus1=X_28235_3.3  kv=0.24  kW=5.4660646  pf=0.930029587175231  status=variable model=1 CVRwatts=0.8 CVRvars=3 Class=1 yearly=Residential   conn=wye   !xfkVA=5
New Line.S_MDV201_HN_2_632_C28235-1C3  bus1=X_28235.3  bus2=X_28235_4.3  linecode=defaultSecondary  phases=1  length=100  units=ft
New Load.MDV201_HN_2_632_C28235-1C3  phases=1  bus1=X_28235_4.3  kv=0.24  kW=5.4660646  pf=0.930029587175231  status=variable model=1 CVRwatts=0.8 CVRvars=3 Class=1 yearly=Residential   conn=wye   !xfkVA=5
New Line.S_MDV201_HN_2_632_C28235-1C4  bus1=X_28235.3  bus2=X_28235_5.3  linecode=defaultSecondary  phases=1  length=100  units=ft
New Load.MDV201_HN_2_632_C28235-1C4  phases=1  bus1=X_28235_5.3  kv=0.24  kW=5.4660646  pf=0.930029587175231  status=variable model=1 CVRwatts=0.8 CVRvars=3 Class=1 yearly=Residential   conn=wye   !xfkVA=5
New Line.S_MDV201_HN_2_320_C28302-1C0  bus1=X_28302.3  bus2=X_28302_1.3  linecode=defaultSecondary  phases=1  length=100  units=ft
New Load.MDV201_HN_2_320_C28302-1C0  phases=1  bus1=X_28302_1.3  kv=0.24  kW=6.670151  pf=0.930029564467214  status=variable model=1 CVRwatts=0.8 CVRvars=3 Class=1 yearly=Residential   conn=wye   !xfkVA=15
New Line.S_MDV201_HN_2_386_B811-1B0  bus1=X_811.2  bus2=X_811_1.2  linecode=defaultSecondary  phases=1  length=100  units=ft
New Load.MDV201_HN_2_386_B811-1B0  phases=1  bus1=X_811_1.2  kv=0.24  kW=5.89421033333333  pf=0.934154995293118  status=variable model=1 CVRwatts=0.8 CVRvars=3 Class=1 yearly=Residential   conn=wye   !xfkVA=8.33333333333333
New Line.S_MDV201_HN_2_386_B811-1B1  bus1=X_811.2  bus2=X_811_2.2  linecode=defaultSecondary  phases=1  length=100  units=ft
New Load.MDV201_HN_2_386_B811-1B1  phases=1  bus1=X_811_2.2  kv=0.24  kW=5.89421033333333  pf=0.934154995293118  status=variable model=1 CVRwatts=0.8 CVRvars=3 Class=1 yearly=Residential   conn=wye   !xfkVA=8.33333333333333
New Line.S_MDV201_HN_2_386_B811-1B2  bus1=X_811.2  bus2=X_811_3.2  linecode=defaultSecondary  phases=1  length=100  units=ft
New Load.MDV201_HN_2_386_B811-1B2  phases=1  bus1=X_811_3.2  kv=0.24  kW=5.89421033333333  pf=0.934154995293118  status=variable model=1 CVRwatts=0.8 CVRvars=3 Class=1 yearly=Residential   conn=wye   !xfkVA=8.33333333333333
New Line.S_MDV201_107997ELB-1A0  bus1=X_107997.1  bus2=X_107997_1.1  linecode=defaultSecondary  phases=1  length=100  units=ft
New Load.MDV201_107997ELB-1A0  phases=1  bus1=X_107997_1.1  kv=0.24  kW=6.860679  pf=0.923378466769913  status=variable model=1 CVRwatts=0.8 CVRvars=3 Class=1 yearly=Residential   conn=wye   !xfkVA=12.3333333333333
New Line.S_MDV201_107997ELB-1A1  bus1=X_107997.1  bus2=X_107997_2.1  linecode=defaultSecondary  phases=1  length=100  units=ft
New Load.MDV201_107997ELB-1A1  phases=1  bus1=X_107997_2.1  kv=0.24  kW=6.860679  pf=0.923378466769913  status=variable model=1 CVRwatts=0.8 CVRvars=3 Class=1 yearly=Residential   conn=wye   !xfkVA=12.3333333333333
New Line.S_MDV201_107997ELB-1A2  bus1=X_107997.1  bus2=X_107997_3.1  linecode=defaultSecondary  phases=1  length=100  units=ft
New Load.MDV201_107997ELB-1A2  phases=1  bus1=X_107997_3.1  kv=0.24  kW=6.860679  pf=0.923378466769913  status=variable model=1 CVRwatts=0.8 CVRvars=3 Class=1 yearly=Residential   conn=wye   !xfkVA=12.3333333333333
New Line.S_MDV201_HN_2_491_C8114-1C0  bus1=X_8114.3  bus2=X_8114_1.3  linecode=defaultSecondary  phases=1  length=100  units=ft
New Load.MDV201_HN_2_491_C8114-1C0  phases=1  bus1=X_8114_1.3  kv=0.24  kW=4.265353  pf=0.930029577391568  status=variable model=1 CVRwatts=0.8 CVRvars=3 Class=1 yearly=Residential   conn=wye   !xfkVA=12.5
New Line.S_MDV201_HN_2_491_C8114-1C1  bus1=X_8114.3  bus2=X_8114_2.3  linecode=defaultSecondary  phases=1  length=100  units=ft
New Load.MDV201_HN_2_491_C8114-1C1  phases=1  bus1=X_8114_2.3  kv=0.24  kW=4.265353  pf=0.930029577391568  status=variable model=1 CVRwatts=0.8 CVRvars=3 Class=1 yearly=Residential   conn=wye   !xfkVA=12.5
New Line.S_MDV201_HN_2_118_ABC28287-1A0  bus1=X_28287.1  bus2=X_28287_1.1  linecode=defaultSecondary  phases=1  length=100  units=ft
New Load.MDV201_HN_2_118_ABC28287-1A0  phases=1  bus1=X_28287_1.1  kv=0.24  kW=4.295672  pf=0.923378492338564  status=variable model=1 CVRwatts=0.8 CVRvars=3 Class=1 yearly=Residential   conn=wye   !xfkVA=25
New Line.S_MDV201_39756ELB-1B0  bus1=X_39756.2  bus2=X_39756_1.2  linecode=defaultSecondary  phases=1  length=100  units=ft
New Load.MDV201_39756ELB-1B0  phases=1  bus1=X_39756_1.2  kv=0.24  kW=3.863  pf=0.934155003279415  status=variable model=1 CVRwatts=0.8 CVRvars=3 Class=1 yearly=Residential   conn=wye   !xfkVA=12.5
New Line.S_MDV201_39756ELB-1B1  bus1=X_39756.2  bus2=X_39756_2.2  linecode=defaultSecondary  phases=1  length=100  units=ft
New Load.MDV201_39756ELB-1B1  phases=1  bus1=X_39756_2.2  kv=0.24  kW=3.863  pf=0.934155003279415  status=variable model=1 CVRwatts=0.8 CVRvars=3 Class=1 yearly=Residential   conn=wye   !xfkVA=12.5
New Line.S_MDV201_DA_8_148_ABC56777-1B0  bus1=X_56777.2  bus2=X_56777_1.2  linecode=defaultSecondary  phases=1  length=100  units=ft
New Load.MDV201_DA_8_148_ABC56777-1B0  phases=1  bus1=X_56777_1.2  kv=0.24  kW=3.386036  pf=0.934155038277633  status=variable model=1 CVRwatts=0.8 CVRvars=3 Class=1 yearly=Residential   conn=wye   !xfkVA=25
New Line.S_MDV201_DA_8_687_B74448-1B0  bus1=X_74448.2  bus2=X_74448_1.2  linecode=defaultSecondary  phases=1  length=100  units=ft
New Load.MDV201_DA_8_687_B74448-1B0  phases=1  bus1=X_74448_1.2  kv=0.24  kW=3.771856  pf=0.934155004112961  status=variable model=1 CVRwatts=0.8 CVRvars=3 Class=1 yearly=Residential   conn=wye   !xfkVA=16.6666666666667
New Line.S_MDV201_DA_8_687_B74448-1B1  bus1=X_74448.2  bus2=X_74448_2.2  linecode=defaultSecondary  phases=1  length=100  units=ft
New Load.MDV201_DA_8_687_B74448-1B1  phases=1  bus1=X_74448_2.2  kv=0.24  kW=3.771856  pf=0.934155004112961  status=variable model=1 CVRwatts=0.8 CVRvars=3 Class=1 yearly=Residential   conn=wye   !xfkVA=16.6666666666667
New Line.S_MDV201_DA_8_687_B74448-1B2  bus1=X_74448.2  bus2=X_74448_3.2  linecode=defaultSecondary  phases=1  length=100  units=ft
New Load.MDV201_DA_8_687_B74448-1B2  phases=1  bus1=X_74448_3.2  kv=0.24  kW=3.771856  pf=0.934155004112961  status=variable model=1 CVRwatts=0.8 CVRvars=3 Class=1 yearly=Residential   conn=wye   !xfkVA=16.6666666666667
New Line.S_MDV201_HN_2_878_B1144266-1B0  bus1=X_1144266.2  bus2=X_1144266_1.2  linecode=defaultSecondary  phases=1  length=100  units=ft
New Load.MDV201_HN_2_878_B1144266-1B0  phases=1  bus1=X_1144266_1.2  kv=0.24  kW=3.283927  pf=0.93415498957925  status=variable model=1 CVRwatts=0.8 CVRvars=3 Class=1 yearly=Residential   conn=wye   !xfkVA=8.33333333333333
New Line.S_MDV201_HN_2_878_B1144266-1B1  bus1=X_1144266.2  bus2=X_1144266_2.2  linecode=defaultSecondary  phases=1  length=100  units=ft
New Load.MDV201_HN_2_878_B1144266-1B1  phases=1  bus1=X_1144266_2.2  kv=0.24  kW=3.283927  pf=0.93415498957925  status=variable model=1 CVRwatts=0.8 CVRvars=3 Class=1 yearly=Residential   conn=wye   !xfkVA=8.33333333333333
New Line.S_MDV201_HN_2_878_B1144266-1B2  bus1=X_1144266.2  bus2=X_1144266_3.2  linecode=defaultSecondary  phases=1  length=100  units=ft
New Load.MDV201_HN_2_878_B1144266-1B2  phases=1  bus1=X_1144266_3.2  kv=0.24  kW=3.283927  pf=0.93415498957925  status=variable model=1 CVRwatts=0.8 CVRvars=3 Class=1 yearly=Residential   conn=wye   !xfkVA=8.33333333333333
New Line.S_MDV201_HN_2_760_ABC28208-1A0  bus1=X_28208.1  bus2=X_28208_1.1  linecode=defaultSecondary  phases=1  length=100  units=ft
New Load.MDV201_HN_2_760_ABC28208-1A0  phases=1  bus1=X_28208_1.1  kv=0.24  kW=2.563614  pf=0.923378491917933  status=variable  model=1 CVRwatts=0.8 CVRvars=3 Class=2 yearly=Commercial_SM   conn=wye   !xfkVA=15
New Line.S_MDV201_HN_2_760_ABC28208-1B0  bus1=X_28208.2  bus2=X_28208_1.2  linecode=defaultSecondary  phases=1  length=100  units=ft
New Load.MDV201_HN_2_760_ABC28208-1B0  phases=1  bus1=X_28208_1.2  kv=0.24  kW=2.522566  pf=0.9341550112529  status=variable  model=1 CVRwatts=0.8 CVRvars=3 Class=2 yearly=Commercial_SM   conn=wye   !xfkVA=15
New Line.S_MDV201_HN_2_760_ABC28208-1C0  bus1=X_28208.3  bus2=X_28208_1.3  linecode=defaultSecondary  phases=1  length=100  units=ft
New Load.MDV201_HN_2_760_ABC28208-1C0  phases=1  bus1=X_28208_1.3  kv=0.24  kW=2.588322  pf=0.930029513365357  status=variable  model=1 CVRwatts=0.8 CVRvars=3 Class=2 yearly=Commercial_SM   conn=wye   !xfkVA=15
New Line.S_MDV201_HN_2_626_C14867-1C0  bus1=X_14867.3  bus2=X_14867_1.3  linecode=defaultSecondary  phases=1  length=100  units=ft
New Load.MDV201_HN_2_626_C14867-1C0  phases=1  bus1=X_14867_1.3  kv=0.24  kW=5.7588595  pf=0.930029581473398  status=variable model=1 CVRwatts=0.8 CVRvars=3 Class=1 yearly=Residential   conn=wye   !xfkVA=12.5
New Line.S_MDV201_HN_2_626_C14867-1C1  bus1=X_14867.3  bus2=X_14867_2.3  linecode=defaultSecondary  phases=1  length=100  units=ft
New Load.MDV201_HN_2_626_C14867-1C1  phases=1  bus1=X_14867_2.3  kv=0.24  kW=5.7588595  pf=0.930029581473398  status=variable model=1 CVRwatts=0.8 CVRvars=3 Class=1 yearly=Residential   conn=wye   !xfkVA=12.5
New Line.S_MDV201_HN_2_073_A8183-1A0  bus1=X_8183.1  bus2=X_8183_1.1  linecode=defaultSecondary  phases=1  length=100  units=ft
New Load.MDV201_HN_2_073_A8183-1A0  phases=1  bus1=X_8183_1.1  kv=0.24  kW=6.435151  pf=0.923378472580839  status=variable model=1 CVRwatts=0.8 CVRvars=3 Class=1 yearly=Residential   conn=wye   !xfkVA=18.5
New Line.S_MDV201_HN_2_073_A8183-1A1  bus1=X_8183.1  bus2=X_8183_2.1  linecode=defaultSecondary  phases=1  length=100  units=ft
New Load.MDV201_HN_2_073_A8183-1A1  phases=1  bus1=X_8183_2.1  kv=0.24  kW=6.435151  pf=0.923378472580839  status=variable model=1 CVRwatts=0.8 CVRvars=3 Class=1 yearly=Residential   conn=wye   !xfkVA=18.5
New Line.S_MDV201_DA_8_360_B8205-1B0  bus1=X_8205.2  bus2=X_8205_1.2  linecode=defaultSecondary  phases=1  length=100  units=ft
New Load.MDV201_DA_8_360_B8205-1B0  phases=1  bus1=X_8205_1.2  kv=0.24  kW=5.03348133333333  pf=0.934154981903506  status=variable model=1 CVRwatts=0.8 CVRvars=3 Class=1 yearly=Residential   conn=wye   !xfkVA=8.33333333333333
New Line.S_MDV201_DA_8_360_B8205-1B1  bus1=X_8205.2  bus2=X_8205_2.2  linecode=defaultSecondary  phases=1  length=100  units=ft
New Load.MDV201_DA_8_360_B8205-1B1  phases=1  bus1=X_8205_2.2  kv=0.24  kW=5.03348133333333  pf=0.934154981903506  status=variable model=1 CVRwatts=0.8 CVRvars=3 Class=1 yearly=Residential   conn=wye   !xfkVA=8.33333333333333
New Line.S_MDV201_DA_8_360_B8205-1B2  bus1=X_8205.2  bus2=X_8205_3.2  linecode=defaultSecondary  phases=1  length=100  units=ft
New Load.MDV201_DA_8_360_B8205-1B2  phases=1  bus1=X_8205_3.2  kv=0.24  kW=5.03348133333333  pf=0.934154981903506  status=variable model=1 CVRwatts=0.8 CVRvars=3 Class=1 yearly=Residential   conn=wye   !xfkVA=8.33333333333333
New Line.S_MDV201_DA_8_780_A1144234-1A0  bus1=X_1144234.1  bus2=X_1144234_1.1  linecode=defaultSecondary  phases=1  length=100  units=ft
New Load.MDV201_DA_8_780_A1144234-1A0  phases=1  bus1=X_1144234_1.1  kv=0.24  kW=5.486593  pf=0.923378463520771  status=variable model=1 CVRwatts=0.8 CVRvars=3 Class=1 yearly=Residential   conn=wye   !xfkVA=25
New Line.S_MDV201_DA_8_139_B56756-1B0  bus1=X_56756.2  bus2=X_56756_1.2  linecode=defaultSecondary  phases=1  length=100  units=ft
New Load.MDV201_DA_8_139_B56756-1B0  phases=1  bus1=X_56756_1.2  kv=0.24  kW=6.7145065  pf=0.934154979547629  status=variable model=1 CVRwatts=0.8 CVRvars=3 Class=1 yearly=Residential   conn=wye   !xfkVA=12.5
New Line.S_MDV201_DA_8_139_B56756-1B1  bus1=X_56756.2  bus2=X_56756_2.2  linecode=defaultSecondary  phases=1  length=100  units=ft
New Load.MDV201_DA_8_139_B56756-1B1  phases=1  bus1=X_56756_2.2  kv=0.24  kW=6.7145065  pf=0.934154979547629  status=variable model=1 CVRwatts=0.8 CVRvars=3 Class=1 yearly=Residential   conn=wye   !xfkVA=12.5
New Line.S_MDV201_HN_2_872_C63667-1C0  bus1=X_63667.3  bus2=X_63667_1.3  linecode=defaultSecondary  phases=1  length=100  units=ft
New Load.MDV201_HN_2_872_C63667-1C0  phases=1  bus1=X_63667_1.3  kv=0.24  kW=7.75934233333333  pf=0.930029591478179  status=variable model=1 CVRwatts=0.8 CVRvars=3 Class=1 yearly=Residential   conn=wye   !xfkVA=8.33333333333333
New Line.S_MDV201_HN_2_872_C63667-1C1  bus1=X_63667.3  bus2=X_63667_2.3  linecode=defaultSecondary  phases=1  length=100  units=ft
New Load.MDV201_HN_2_872_C63667-1C1  phases=1  bus1=X_63667_2.3  kv=0.24  kW=7.75934233333333  pf=0.930029591478179  status=variable model=1 CVRwatts=0.8 CVRvars=3 Class=1 yearly=Residential   conn=wye   !xfkVA=8.33333333333333
New Line.S_MDV201_HN_2_872_C63667-1C2  bus1=X_63667.3  bus2=X_63667_3.3  linecode=defaultSecondary  phases=1  length=100  units=ft
New Load.MDV201_HN_2_872_C63667-1C2  phases=1  bus1=X_63667_3.3  kv=0.24  kW=7.75934233333333  pf=0.930029591478179  status=variable model=1 CVRwatts=0.8 CVRvars=3 Class=1 yearly=Residential   conn=wye   !xfkVA=8.33333333333333
New Line.S_MDV201_HN_2_726_A63675-1A0  bus1=X_63675.1  bus2=X_63675_1.1  linecode=defaultSecondary  phases=1  length=100  units=ft
New Load.MDV201_HN_2_726_A63675-1A0  phases=1  bus1=X_63675_1.1  kv=0.24  kW=4.7485355  pf=0.923378467599093  status=variable model=1 CVRwatts=0.8 CVRvars=3 Class=1 yearly=Residential   conn=wye   !xfkVA=6.25
New Line.S_MDV201_HN_2_726_A63675-1A1  bus1=X_63675.1  bus2=X_63675_2.1  linecode=defaultSecondary  phases=1  length=100  units=ft
New Load.MDV201_HN_2_726_A63675-1A1  phases=1  bus1=X_63675_2.1  kv=0.24  kW=4.7485355  pf=0.923378467599093  status=variable model=1 CVRwatts=0.8 CVRvars=3 Class=1 yearly=Residential   conn=wye   !xfkVA=6.25
New Line.S_MDV201_HN_2_726_A63675-1A2  bus1=X_63675.1  bus2=X_63675_3.1  linecode=defaultSecondary  phases=1  length=100  units=ft
New Load.MDV201_HN_2_726_A63675-1A2  phases=1  bus1=X_63675_3.1  kv=0.24  kW=4.7485355  pf=0.923378467599093  status=variable model=1 CVRwatts=0.8 CVRvars=3 Class=1 yearly=Residential   conn=wye   !xfkVA=6.25
New Line.S_MDV201_HN_2_726_A63675-1A3  bus1=X_63675.1  bus2=X_63675_4.1  linecode=defaultSecondary  phases=1  length=100  units=ft
New Load.MDV201_HN_2_726_A63675-1A3  phases=1  bus1=X_63675_4.1  kv=0.24  kW=4.7485355  pf=0.923378467599093  status=variable model=1 CVRwatts=0.8 CVRvars=3 Class=1 yearly=Residential   conn=wye   !xfkVA=6.25
New Line.S_MDV201_HN_2_620_C28227-1C0  bus1=X_28227.3  bus2=X_28227_1.3  linecode=defaultSecondary  phases=1  length=100  units=ft
New Load.MDV201_HN_2_620_C28227-1C0  phases=1  bus1=X_28227_1.3  kv=0.24  kW=5.66674566666667  pf=0.930029592069039  status=variable model=1 CVRwatts=0.8 CVRvars=3 Class=1 yearly=Residential   conn=wye   !xfkVA=8.33333333333333
...