OpenDSS/ckt5_Curr_Elem.Txt

CIRCUIT ELEMENT CURRENTS

(Currents into element from indicated bus)

Power Delivery Elements

  Bus                          Phase    Magnitude, A     Angle      (Real)   +j  (Imag)

ELEMENT = "Vsource.SOURCE"
SOURCEBUS                          1           40.213 /_  155.1 =    -36.482 +j    16.917
SOURCEBUS                          2           39.949 /_   32.2 =     33.802 +j    21.292
SOURCEBUS                          3           38.303 /_  -86.0 =     2.6798 +j   -38.209
------------
SOURCEBUS                          0           40.213 /_  -24.9 =     36.482 +j   -16.917
SOURCEBUS                          0           39.949 /_ -147.8 =    -33.802 +j   -21.292
SOURCEBUS                          0           38.303 /_   94.0 =    -2.6798 +j    38.209

ELEMENT = "Line.MDV201_CONNECTOR"
_MDV_SUB_1_LSB                     1           356.77 /_  -56.7 =     195.74 +j   -298.29
_MDV_SUB_1_LSB                     2           388.01 /_ -175.9 =    -386.99 +j   -28.071
_MDV_SUB_1_LSB                     3           347.49 /_   63.9 =     152.93 +j    312.03
------------
MDV201                             1           356.77 /_  123.3 =    -195.74 +j    298.29
MDV201                             2           388.01 /_    4.1 =     386.99 +j    28.071
MDV201                             3           347.49 /_ -116.1 =    -152.93 +j   -312.03

ELEMENT = "Line.MDV201_HN_1_275_A94744"
94743                              1          0.93771 /_  -56.5 =    0.51691 +j  -0.78237
------------
94744                              1           0.9383 /_  123.4 =   -0.51609 +j   0.78362

ELEMENT = "Line.MDV201_HN_2_466_C62235"
62244                              3             19.5 /_   63.8 =     8.6098 +j    17.497
------------
62235                              3           19.501 /_ -116.2 =    -8.6106 +j   -17.497

ELEMENT = "Line.MDV201_DA_8_780_A1144234"
1144235                            1           2.5131 /_  -57.1 =     1.3666 +j   -2.1091
------------
1144234                            1            2.514 /_  122.9 =    -1.3653 +j     2.111

ELEMENT = "Line.MDV201_1160486ELB-1_SW"
39754                              2           7.5268 /_ -176.0 =    -7.5086 +j  -0.52402
------------
MDV201_1160486ELB_INT              2           7.5268 /_    4.0 =     7.5086 +j   0.52401

ELEMENT = "Line.MDV201_1160486ELB"
MDV201_1160486ELB_INT              2           7.5268 /_ -176.0 =    -7.5086 +j  -0.52402
------------
1160486                            2           7.5268 /_    4.0 =     7.5086 +j   0.52402

ELEMENT = "Line.MDV201_HN_2P009_B1160473"
1160476                            2           28.193 /_ -176.1 =    -28.127 +j    -1.924
------------
1160473                            2           28.197 /_    3.9 =     28.132 +j    1.9139

ELEMENT = "Line.MDV201_HN_2_088_ABC8164"
8163                               1           87.504 /_  -57.2 =     47.414 +j   -73.546
8163                               2           58.618 /_ -175.4 =    -58.432 +j   -4.6706
8163                               3           127.17 /_   63.7 =     56.312 +j    114.02
------------
8164                               1           87.506 /_  122.8 =    -47.413 +j    73.548
8164                               2           58.619 /_    4.6 =     58.433 +j    4.6684
8164                               3           127.17 /_ -116.3 =    -56.314 +j   -114.02

ELEMENT = "Line.MDV201_HN_2_319_B39610"
103730                             2           1.5677 /_ -176.1 =    -1.5641 +j   -0.1067
------------
39610                              2           1.5679 /_    3.9 =     1.5643 +j   0.10637

ELEMENT = "Line.MDV201_HN_2_417_A842"
835                                1           12.285 /_  -56.3 =     6.8134 +j   -10.223
------------
842                                1           12.286 /_  123.7 =    -6.8129 +j    10.223

ELEMENT = "Line.MDV201_HN_2_941_B39760"
39775                              2           5.7899 /_ -176.2 =    -5.7774 +j  -0.38114
------------
39760                              2           5.7904 /_    3.8 =     5.7779 +j   0.38012

ELEMENT = "Line.MDV201_1160480ELB-1_SW"
15004                              2           21.236 /_ -176.1 =    -21.187 +j   -1.4433
------------
MDV201_1160480ELB_INT              2           21.236 /_    3.9 =     21.187 +j    1.4433

ELEMENT = "Line.MDV201_1160480ELB"
MDV201_1160480ELB_INT              2           21.236 /_ -176.1 =    -21.187 +j   -1.4433
------------
1160480                            2           21.236 /_    3.9 =     21.187 +j    1.4433

ELEMENT = "Line.C_1P034_SW"
1160492                            1           11.192 /_  -56.6 =     6.1573 +j   -9.3464
------------
MDV201_8088ELB_INT                 1           11.192 /_  123.4 =    -6.1573 +j    9.3464

ELEMENT = "Line.MDV201_8088ELB"
MDV201_8088ELB_INT                 1           11.192 /_  -56.6 =     6.1573 +j   -9.3464
------------
8088                               1           11.192 /_  123.4 =    -6.1573 +j    9.3464

ELEMENT = "Line.MDV201_HN_2_499_ABC834"
829                                1           109.46 /_  -56.6 =     60.304 +j    -91.35
829                                2           142.76 /_ -176.1 =    -142.42 +j   -9.8257
829                                3           100.95 /_   63.9 =     44.414 +j    90.658
------------
834                                1           109.46 /_  123.4 =    -60.303 +j    91.352
834                                2           142.76 /_    3.9 =     142.42 +j    9.8236
834                                3           100.95 /_ -116.1 =    -44.416 +j   -90.658

ELEMENT = "Line.MDV201_1160478ELB-1_SW"
15005                              2           15.644 /_ -176.1 =    -15.607 +j   -1.0732
------------
MDV201_1160478ELB_INT              2           15.644 /_    3.9 =     15.607 +j    1.0732

ELEMENT = "Line.MDV201_1160478ELB"
MDV201_1160478ELB_INT              2           15.644 /_ -176.1 =    -15.607 +j   -1.0732
------------
1160478                            2           15.644 /_    3.9 =     15.607 +j    1.0732

ELEMENT = "Line.MDV201_HN_2_217_ABC8160"
44582                              1           87.503 /_  -57.2 =     47.416 +j   -73.542
44582                              2           63.016 /_ -175.4 =    -62.814 +j   -5.0331
44582                              3           139.73 /_   63.7 =     61.815 +j    125.32
------------
8160                               1           87.503 /_  122.8 =    -47.415 +j    73.543
8160                               2           63.016 /_    4.6 =     62.815 +j    5.0324
8160                               3           139.73 /_ -116.3 =    -61.816 +j   -125.32

ELEMENT = "Line.MDV201_HN_2_942_C89791"
89783                              3           16.122 /_   63.7 =     7.1493 +j     14.45
------------
89791                              3           16.123 /_ -116.3 =    -7.1503 +j    -14.45

ELEMENT = "Line.MDV201_99422FUSE"
6584                               1           20.411 /_  -57.2 =     11.065 +j   -17.151
------------
99422                              1           20.411 /_  122.8 =    -11.065 +j    17.151

ELEMENT = "Line.MDV201_HN_2_140_ABC8124"
8113                               1           22.047 /_  -56.8 =     12.064 +j   -18.453
8113                               2           1.3969 /_ -175.4 =    -1.3925 +j  -0.11096
8113                               3           10.633 /_   64.1 =     4.6436 +j    9.5652
------------
8124                               1           22.048 /_  123.2 =    -12.064 +j    18.455
8124                               2           1.3975 /_    4.5 =     1.3932 +j   0.10943
8124                               3           10.633 /_ -115.9 =    -4.6452 +j    -9.565

ELEMENT = "Line.MDV201_HN_2_818_ABC63707"
14880                              1           15.829 /_  -56.5 =     8.7454 +j   -13.193
14880                              2           97.406 /_ -176.2 =    -97.187 +j    -6.533
14880                              3           18.848 /_   64.0 =      8.274 +j    16.935
------------
63707                              1           15.829 /_  123.5 =    -8.7447 +j    13.195
63707                              2           97.407 /_    3.8 =     97.188 +j    6.5315
63707                              3           18.848 /_ -116.0 =    -8.2756 +j   -16.935

ELEMENT = "Line.MDV201_DA_8_731_C74450"
74449                              3           2.3657 /_   63.6 =      1.052 +j    2.1189
------------
74450                              3            2.366 /_ -116.4 =    -1.0529 +j   -2.1188

ELEMENT = "Line.MDV201_100494FUSE"
14989                              2           1.2713 /_ -176.4 =    -1.2688 +j -0.078977
------------
100494                             2           1.2713 /_    3.6 =     1.2688 +j  0.078933

ELEMENT = "Line.MDV201_107110FUSE"
63683                              1           37.373 /_  -56.6 =      20.55 +j   -31.217
63683                              3           18.728 /_   64.1 =     8.1904 +j    16.842
------------
107110                             1           37.373 /_  123.4 =    -20.549 +j    31.217
107110                             3           18.728 /_ -115.9 =    -8.1905 +j   -16.842

ELEMENT = "Line.MDV201_HN_2_477_C8121"
1144242                            3           8.9109 /_   64.1 =     3.8972 +j    8.0135
------------
8121                               3           8.9113 /_ -115.9 =    -3.8981 +j   -8.0134

ELEMENT = "Line.MDV201_HN_2_876_C63671"
63668                              3           15.399 /_   63.9 =     6.7665 +j    13.833
------------
63671                              3             15.4 /_ -116.1 =    -6.7675 +j   -13.833

ELEMENT = "Line.MDV201_HN_2_671_C89781"
89784                              3           40.369 /_   63.6 =      17.93 +j    36.169
------------
89781                              3           40.369 /_ -116.4 =    -17.931 +j   -36.168

ELEMENT = "Line.MDV201_DA_8_930_A39751"
39734                              1           7.7384 /_  -57.3 =     4.1852 +j   -6.5091
------------
39751                              1            7.739 /_  122.7 =    -4.1844 +j    6.5102

ELEMENT = "Line.MDV201_HN_2_394_ABC63658"
63657                              1           230.02 /_  -56.6 =     126.61 +j   -192.04
63657                              2           312.87 /_ -176.0 =    -312.09 +j   -22.037
63657                              3           207.77 /_   64.0 =     91.163 +j    186.71
------------
63658                              1           230.02 /_  123.4 =    -126.61 +j    192.04
63658                              2           312.87 /_    4.0 =      312.1 +j    22.036
63658                              3           207.77 /_ -116.0 =    -91.164 +j   -186.71

ELEMENT = "Line.MDV201_DA_8_687_B74448"
74445                              2           25.638 /_ -175.6 =     -25.56 +j   -1.9883
------------
74448                              2           25.638 /_    4.4 =     25.561 +j    1.9875

ELEMENT = "Line.MDV201_1012643FUSE"
1012641                            3          0.62382 /_   65.0 =    0.26318 +j   0.56559
------------
1012643                            3          0.62384 /_ -115.0 =   -0.26323 +j  -0.56559

ELEMENT = "Line.MDV201_HN_1_238_A39569"
39570                              1           2.2872 /_  -56.6 =     1.2602 +j   -1.9088
------------
39569                              1           2.2877 /_  123.4 =    -1.2595 +j    1.9098

ELEMENT = "Line.MDV201_14869FUSE"
14858                              1           15.978 /_  -56.7 =     8.7766 +j   -13.352
------------
14869                              1           15.978 /_  123.3 =    -8.7766 +j    13.352

ELEMENT = "Line.MDV201_HN_1_156_C89790"
89796                              3           1.8281 /_   64.0 =    0.80132 +j    1.6431
------------
89790                              3           1.8288 /_ -116.1 =   -0.80313 +j    -1.643

ELEMENT = "Line.MDV201_HN_2_318_C28272"
28271                              3           1.4737 /_   64.0 =    0.64624 +j    1.3244
------------
28272                              3           1.4742 /_ -116.1 =    -0.6476 +j   -1.3243

ELEMENT = "Line.MDV201_C_1_140_ABC69477"
69478                              1        0.0061034 /_   61.5 =  0.0029168 +j 0.0053613
69478                              2         0.091979 /_ -174.8 =  -0.091602 +j -0.0083162
69478                              3        0.0057467 /_  170.2 =  -0.0056624 +j 0.0009807
------------
69477                              1        0.0028556 /_ -118.5 =  -0.0013632 +j -0.0025092
69477                              2         0.093279 /_    3.3 =   0.093129 +j 0.0052892
69477                              3        0.0026911 /_   -9.8 =  0.0026514 +j -0.00046023

ELEMENT = "Line.MDV201_HN_2_948_C8176"
8175                               3            3.134 /_   63.7 =     1.3908 +j    2.8086
------------
8176                               3           3.1344 /_ -116.4 =    -1.3917 +j   -2.8085

ELEMENT = "Line.MDV201_1144230FUSE"
8184                               1           7.2059 /_  -56.4 =      3.984 +j   -6.0044
------------
1144230                            1           7.2059 /_  123.6 =     -3.984 +j    6.0045

ELEMENT = "Line.MDV201_HN_2_105_ABC39582"
39595                              1            25.07 /_  -56.6 =     13.785 +j    -20.94
39595                              2           71.514 /_ -176.2 =    -71.354 +j   -4.7906
39595                              3           35.059 /_   63.8 =     15.478 +j    31.457
------------
39582                              1           25.071 /_  123.4 =    -13.784 +j    20.942
39582                              2           71.515 /_    3.8 =     71.355 +j    4.7886
39582                              3            35.06 /_ -116.2 =     -15.48 +j   -31.457

ELEMENT = "Line.MDV201_DA_8_691_B46386"
46385                              2           15.549 /_ -175.6 =    -15.502 +j    -1.206
------------
46386                              2           15.549 /_    4.4 =     15.503 +j    1.2052

ELEMENT = "Line.MDV201_HN_2_457_C62244"
106884                             3           20.659 /_   63.8 =     9.1224 +j    18.536
------------
62244                              3            20.66 /_ -116.2 =     -9.123 +j   -18.536

ELEMENT = "Line.C_1P038_SW"
1160493                            1           22.137 /_  -56.5 =     12.202 +j    -18.47
------------
MDV201_8075ELB_INT                 1           22.137 /_  123.5 =    -12.202 +j     18.47

ELEMENT = "Line.MDV201_8075ELB"
MDV201_8075ELB_INT                 1           22.137 /_  -56.5 =     12.202 +j    -18.47
------------
8075                               1           22.137 /_  123.5 =    -12.202 +j     18.47

ELEMENT = "Line.C_1P032_SW"
69460                              1           3.1835 /_  -56.7 =     1.7481 +j   -2.6606
------------
MDV201_107997ELB_INT               1           3.1835 /_  123.3 =    -1.7481 +j    2.6607

ELEMENT = "Line.MDV201_107997ELB"
MDV201_107997ELB_INT               1           3.1835 /_  -56.7 =     1.7481 +j   -2.6606
------------
107997                             1           3.1835 /_  123.3 =    -1.7481 +j    2.6606

ELEMENT = "Line.MDV201_HN_2_949_C8180"
8176                               3           3.1344 /_   63.6 =     1.3917 +j    2.8085
------------
8180                               3           3.1345 /_ -116.4 =    -1.3921 +j   -2.8085

ELEMENT = "Line.MDV201_C_1P024_A8100"
1160461                            1           20.433 /_  -56.4 =     11.298 +j   -17.025
------------
8100                               1           20.442 /_  123.5 =    -11.285 +j    17.045

ELEMENT = "Line.MDV201_HN_2_166_C33824"
39776                              3           5.1887 /_   63.8 =     2.2901 +j     4.656
------------
33824                              3           5.1892 /_ -116.2 =    -2.2913 +j   -4.6559

ELEMENT = "Line.MDV201_HN_2_827_A14873"
1140227                            1           2.7771 /_  -56.6 =     1.5287 +j   -2.3185
------------
14873                              1           2.7774 /_  123.4 =    -1.5282 +j    2.3192

ELEMENT = "Line.HN_2P017_SW"
1160488                            2            1.488 /_ -175.4 =    -1.4831 +j  -0.12014
------------
MDV201_62249ELB_INT                2            1.488 /_    4.6 =     1.4831 +j   0.12014

ELEMENT = "Line.MDV201_62249ELB"
MDV201_62249ELB_INT                2            1.488 /_ -175.4 =    -1.4831 +j  -0.12015
------------
62249                              2            1.488 /_    4.6 =     1.4831 +j   0.12015

ELEMENT = "Line.MDV201_HN_2_397_B63634"
107106                             2           16.127 /_ -175.5 =    -16.077 +j   -1.2601
------------
63634                              2           16.127 /_    4.5 =     16.078 +j    1.2592

ELEMENT = "Line.MDV201_C_1P037_A1160467"
1160494                            1           19.298 /_  -56.5 =     10.646 +j   -16.096
------------
1160467                            1           19.301 /_  123.5 =    -10.642 +j    16.103

ELEMENT = "Line.MDV201_HN_2_280_A8185"
1144230                            1           1.0786 /_  -56.3 =     0.5978 +j  -0.89779
------------
8185                               1           1.0789 /_  123.6 =   -0.59738 +j   0.89842

ELEMENT = "Line.MDV201_HN_2_794_ABC791"
796                                1           356.78 /_  -56.7 =     195.74 +j   -298.29
796                                2           388.01 /_ -175.9 =    -386.99 +j    -28.07
796                                3           347.49 /_   63.9 =     152.94 +j    312.03
------------
791                                1           356.78 /_  123.3 =    -195.74 +j    298.29
791                                2           388.01 /_    4.1 =        387 +j    28.068
791                                3           347.49 /_ -116.1 =    -152.94 +j   -312.03

ELEMENT = "Line.MDV201_HN_2_677_C62303"
62306                              3           5.4736 /_   63.8 =     2.4206 +j    4.9093
------------
62303                              3           5.4741 /_ -116.3 =    -2.4218 +j   -4.9092

ELEMENT = "Line.MDV201_100478FUSE"
14839                              3          0.76349 /_   63.3 =    0.34316 +j   0.68203
------------
100478                             3          0.76351 /_ -116.7 =   -0.34321 +j  -0.68203

ELEMENT = "Line.MDV201_HN_2_115_ABC58446"
58441                              1           5.9115 /_  -56.8 =     3.2375 +j   -4.9461
58441                              2           3.3521 /_ -176.2 =    -3.3446 +j  -0.22435
58441                              3           22.561 /_   63.8 =     9.9628 +j    20.242
------------
58446                              1            5.912 /_  123.2 =     -3.237 +j    4.9471
58446                              2           3.3525 /_    3.8 =     3.3451 +j   0.22328
58446                              3           22.562 /_ -116.2 =    -9.9639 +j   -20.242

ELEMENT = "Line.MDV201_HN_2_895_B52515"
112112                             2           13.678 /_ -176.2 =    -13.647 +j  -0.91069
------------
52515                              2           13.678 /_    3.8 =     13.647 +j   0.91027

ELEMENT = "Line.MDV201_98795FUSE"
846                                1          0.39446 /_  -56.9 =    0.21521 +j  -0.33058
846                                2          0.38373 /_ -175.9 =   -0.38276 +j -0.027203
846                                3          0.39173 /_   63.9 =    0.17264 +j   0.35164
------------
98795                              1          0.39449 /_  123.1 =   -0.21518 +j   0.33064
98795                              2          0.38376 /_    4.1 =     0.3828 +j   0.02713
98795                              3          0.39175 /_ -116.2 =    -0.1727 +j  -0.35163

ELEMENT = "Line.MDV201_HN_2_246_B39602"
39623                              2           6.3383 /_ -176.0 =    -6.3231 +j  -0.43965
------------
39602                              2           6.3388 /_    4.0 =     6.3236 +j   0.43845

ELEMENT = "Line.MDV201_DA_8_149_ABC56778"
56777                              1           7.3607 /_  -56.9 =     4.0187 +j   -6.1668
56777                              2           35.132 /_ -175.5 =    -35.023 +j   -2.7653
56777                              3           38.006 /_   63.7 =     16.866 +j    34.058
------------
56778                              1            7.362 /_  123.1 =    -4.0174 +j    6.1692
56778                              2           35.133 /_    4.5 =     35.024 +j    2.7626
56778                              3           38.006 /_ -116.3 =    -16.869 +j   -34.058

ELEMENT = "Line.MDV201_HN_2_083_ABC62239"
44586                              1           87.508 /_  -57.2 =      47.41 +j   -73.553
44586                              2           49.685 /_ -175.4 =    -49.527 +j    -3.955
44586                              3           61.425 /_   63.7 =     27.179 +j    55.085
------------
62239                              1           87.509 /_  122.8 =     -47.41 +j    73.553
62239                              2           49.685 /_    4.6 =     49.527 +j    3.9542
62239                              3           61.425 /_ -116.3 =     -27.18 +j   -55.085

ELEMENT = "Line.MDV201_DA_8_145_ABC46393"
46394                              1        0.0019493 /_   61.0 =  0.00094436 +j 0.0017053
46394                              2        0.0021737 /_  -63.8 =  0.00095967 +j -0.0019503
46394                              3        0.0019518 /_  171.2 =  -0.0019289 +j 0.00029753
------------
46393                              1      3.4942E-011 /_   51.3 =  2.1828E-011 +j 2.7285E-011
46393                              2      3.7982E-011 /_ -163.3 =  -3.638E-011 +j -1.0914E-011
46393                              3       2.058E-011 /_   45.0 =  1.4552E-011 +j 1.4552E-011

ELEMENT = "Line.MDV201_HN_2_729_B28246"
1144254                            2           1.3802 /_ -175.5 =    -1.3759 +j  -0.10882
------------
28246                              2           1.3803 /_    4.5 =     1.3761 +j   0.10837

ELEMENT = "Line.MDV201_HN_2_954_B39771"
14996                              2           3.6925 /_ -176.2 =    -3.6845 +j  -0.24259
------------
39771                              2           3.6928 /_    3.8 =     3.6849 +j   0.24175

ELEMENT = "Line.MDV201_108776FUSE"
74432                              1            2.092 /_  -57.5 =     1.1256 +j   -1.7634
------------
108776                             1            2.092 /_  122.5 =    -1.1255 +j    1.7634

ELEMENT = "Line.HN_2P028_SW"
1160489                            1           1.6402 /_  -57.0 =     0.8934 +j   -1.3755
------------
MDV201_795ELB_INT                  1           1.6402 /_  123.0 =    -0.8934 +j    1.3755

ELEMENT = "Line.MDV201_795ELB"
MDV201_795ELB_INT                  1           1.6402 /_  -57.0 =     0.8934 +j   -1.3755
------------
795                                1           1.6402 /_  123.0 =    -0.8934 +j    1.3755

ELEMENT = "Line.MDV201_1140227FUSE"
14879                              1           2.7771 /_  -56.6 =     1.5287 +j   -2.3185
------------
1140227                            1           2.7771 /_  123.4 =    -1.5287 +j    2.3185

ELEMENT = "Line.MDV201_HN_2_488_C8103"
8099                               3           8.5182 /_   64.0 =     3.7285 +j    7.6589
------------
8103                               3           8.5185 /_ -116.0 =    -3.7292 +j   -7.6589

ELEMENT = "Line.MDV201_DA_8_917_A56768"
1000983                            1           49.189 /_  -57.3 =     26.585 +j   -41.386
------------
56768                              1           49.189 /_  122.7 =    -26.584 +j    41.387

ELEMENT = "Line.MDV201_HN_2_029_ABC62262"
62265                              1           87.512 /_  -57.2 =     47.407 +j   -73.559
62265                              2           38.692 /_ -175.4 =     -38.57 +j   -3.0697
62265                              3           40.768 /_   63.7 =     18.064 +j    36.547
------------
62262                              1           87.512 /_  122.8 =    -47.406 +j     73.56
62262                              2           38.693 /_    4.5 =     38.571 +j     3.068
62262                              3           40.768 /_ -116.3 =    -18.066 +j   -36.547

ELEMENT = "Line.MDV201_HN_2_955_B39752"
39771                              2           3.0138 /_ -176.2 =    -3.0071 +j  -0.20109
------------
39752                              2           3.0141 /_    3.8 =     3.0075 +j   0.20024

ELEMENT = "Line.MDV201_DA_8_215_B1017348"
1017350                            2           6.5643 /_ -176.2 =    -6.5496 +j  -0.43815
------------
1017348                            2           6.5651 /_    3.8 =     6.5506 +j    0.4362

ELEMENT = "Line.MDV201_DA_8_678_A56764"
56760                              1           6.2704 /_  -57.1 =     3.4014 +j   -5.2676
------------
56764                              1           6.2708 /_  122.8 =    -3.4008 +j    5.2685

ELEMENT = "Line.MDV201_HN_2_834_B39617"
39620                              2           7.7362 /_ -175.9 =    -7.7166 +j  -0.55036
------------
39617                              2           7.7366 /_    4.1 =      7.717 +j   0.54937

ELEMENT = "Line.MDV201_HN_2_906_A39580"
39589                              1           2.2424 /_  -56.6 =      1.234 +j   -1.8723
------------
39580                              1           2.2426 /_  123.4 =    -1.2338 +j    1.8726

ELEMENT = "Line.MDV201_DA_8_734_C74440"
74446                              3           8.3972 /_   63.6 =     3.7378 +j    7.5194
------------
74440                              3           8.3975 /_ -116.4 =    -3.7385 +j   -7.5194

ELEMENT = "Line.MDV201_DA_8_157_ABC58429"
58430                              1           3.9222 /_  -56.8 =     2.1471 +j   -3.2823
58430                              2           1.5786 /_ -174.9 =    -1.5723 +j  -0.14063
58430                              3           37.665 /_   63.6 =     16.732 +j    33.745
------------
58429                              1           3.9233 /_  123.2 =     -2.146 +j    3.2843
58429                              2           1.5795 /_    5.0 =     1.5734 +j   0.13851
58429                              3           37.666 /_ -116.4 =    -16.734 +j   -33.744

ELEMENT = "Line.MDV201_HN_2_605_A21655"
28213                              1           16.257 /_  -56.9 =     8.8834 +j   -13.615
------------
21655                              1           16.258 /_  123.1 =    -8.8827 +j    13.616

ELEMENT = "Line.MDV201_HN_2_636_AC28249"
63666                              1           34.173 /_  -56.6 =     18.791 +j   -28.542
63666                              3           3.8378 /_   64.2 =     1.6675 +j    3.4566
------------
28249                              1           34.173 /_  123.4 =     -18.79 +j    28.543
28249                              3           3.8385 /_ -115.8 =    -1.6689 +j   -3.4567

ELEMENT = "Line.MDV201_HN_2_705_ABC52524"
105409                             1           23.034 /_  -56.5 =     12.715 +j   -19.207
105409                             2           97.404 /_ -176.2 =    -97.185 +j   -6.5378
105409                             3           18.846 /_   64.0 =     8.2693 +j    16.935
------------
52524                              1           23.035 /_  123.5 =    -12.714 +j    19.208
52524                              2           97.405 /_    3.8 =     97.185 +j    6.5367
52524                              3           18.847 /_ -116.0 =    -8.2703 +j   -16.935

ELEMENT = "Line.MDV201_DA_8_928_A39733"
74424                              1           17.135 /_  -57.3 =     9.2566 +j   -14.419
------------
39733                              1           17.135 /_  122.7 =    -9.2558 +j     14.42

ELEMENT = "Line.MDV201_HN_2_383_ABC8113"
8111                               1           22.046 /_  -56.8 =     12.065 +j   -18.452
8111                               2           1.3963 /_ -175.4 =    -1.3917 +j  -0.11249
8111                               3           10.632 /_   64.1 =     4.6421 +j    9.5655
------------
8113                               1           22.047 /_  123.2 =    -12.064 +j    18.453
8113                               2           1.3969 /_    4.6 =     1.3925 +j   0.11096
8113                               3           10.633 /_ -115.9 =    -4.6436 +j   -9.5652

ELEMENT = "Line.MDV201_HN_2_803_B837"
836                                2           28.972 /_ -175.9 =    -28.899 +j   -2.0556
------------
837                                2           28.972 /_    4.1 =     28.899 +j    2.0546

ELEMENT = "Line.SW-HN_2_793_SW"
1023346                            1           356.78 /_  -56.7 =     195.74 +j   -298.29
1023346                            2           388.01 /_ -175.9 =    -386.99 +j    -28.07
1023346                            3           347.49 /_   63.9 =     152.94 +j    312.03
------------
MDV201_796USD_INT                  1           356.78 /_  123.3 =    -195.74 +j    298.29
MDV201_796USD_INT                  2           388.01 /_    4.1 =     386.99 +j     28.07
MDV201_796USD_INT                  3           347.49 /_ -116.1 =    -152.94 +j   -312.03

ELEMENT = "Line.MDV201_796USD"
MDV201_796USD_INT                  1           356.78 /_  -56.7 =     195.74 +j   -298.29
MDV201_796USD_INT                  2           388.01 /_ -175.9 =    -386.99 +j    -28.07
MDV201_796USD_INT                  3           347.49 /_   63.9 =     152.94 +j    312.03
------------
796                                1           356.78 /_  123.3 =    -195.74 +j    298.29
796                                2           388.01 /_    4.1 =     386.99 +j     28.07
796                                3           347.49 /_ -116.1 =    -152.94 +j   -312.03

ELEMENT = "Line.MDV201_HN_1_332_C28263"
28262                              3          0.72514 /_   63.9 =    0.31945 +j   0.65098
------------
28263                              3          0.72545 /_ -116.2 =   -0.32027 +j  -0.65093

ELEMENT = "Line.MDV201_HN_2_890_B52521"
52519                              2           4.8545 /_ -176.2 =    -4.8436 +j  -0.32454
------------
...