OpenDSS/ckt5_EXP_SEQVOLTAGES.CSV
Bus,  V1,  p.u.,Base kV, V2, %V2/V1, V0, %V0/V1, Vresidual, %NEMA
"SOURCEBUS",      69715,      1.05,   115.00, 0.00116923, 1.677E-006, 4.53503E-006, 6.505E-009, 1.36051E-005, 1.693E-006
"_MDV_SUB_1_LSB",    7359.25,    1.0222,    12.47,    11.9251,    0.162,    14.8506,   0.2018,    44.5517,   0.1611
"MDV201",    7359.24,    1.0222,    12.47,    11.9252,    0.162,    14.8507,   0.2018,    44.5522,   0.1611
"94743",          0,         0,    12.47,          0,        0,          0,        0,    7147.37,        0
"94744",          0,         0,    12.47,          0,        0,          0,        0,    7147.27,        0
"62244",          0,         0,    12.47,          0,        0,          0,        0,    7216.79,        0
"62235",          0,         0,    12.47,          0,        0,          0,        0,    7215.99,        0
"1144235",          0,         0,    12.47,          0,        0,          0,        0,    7184.18,        0
"1144234",          0,         0,    12.47,          0,        0,          0,        0,     7183.8,        0
"39754",          0,         0,    12.47,          0,        0,          0,        0,    7018.71,        0
"MDV201_1160486ELB_INT",          0,         0,    12.47,          0,        0,          0,        0,     7018.7,        0
"1160486",          0,         0,    12.47,          0,        0,          0,        0,     7018.7,        0
"1160476",          0,         0,    12.47,          0,        0,          0,        0,    7023.59,        0
"1160473",          0,         0,    12.47,          0,        0,          0,        0,    7022.54,        0
"8163",    7236.62,    1.0051,    12.47,     7.3987,   0.1022,     12.918,   0.1785,    38.7539,   0.1006
"8164",    7233.16,    1.0047,    12.47,    8.38348,   0.1159,    11.8276,   0.1635,    35.4827,    0.115
"103730",          0,         0,    12.47,          0,        0,          0,        0,     7120.2,        0
"39610",          0,         0,    12.47,          0,        0,          0,        0,    7120.17,        0
"835",          0,         0,    12.47,          0,        0,          0,        0,     7288.9,        0
"842",          0,         0,    12.47,          0,        0,          0,        0,    7288.12,        0
"39775",          0,         0,    12.47,          0,        0,          0,        0,    7025.82,        0
"39760",          0,         0,    12.47,          0,        0,          0,        0,    7025.36,        0
"15004",          0,         0,    12.47,          0,        0,          0,        0,    7021.39,        0
"MDV201_1160480ELB_INT",          0,         0,    12.47,          0,        0,          0,        0,    7021.36,        0
"1160480",          0,         0,    12.47,          0,        0,          0,        0,    7021.36,        0
"1160492",          0,         0,    12.47,          0,        0,          0,        0,    7165.48,        0
"MDV201_8088ELB_INT",          0,         0,    12.47,          0,        0,          0,        0,    7165.47,        0
"8088",          0,         0,    12.47,          0,        0,          0,        0,    7165.47,        0
"829",    7234.24,    1.0048,    12.47,    9.02597,   0.1248,    55.4341,   0.7663,    166.302,   0.1199
"834",    7226.66,    1.0038,    12.47,    9.64952,   0.1335,    57.4152,   0.7945,    172.246,   0.1298
"15005",          0,         0,    12.47,          0,        0,          0,        0,    7020.05,        0
"MDV201_1160478ELB_INT",          0,         0,    12.47,          0,        0,          0,        0,    7020.03,        0
"1160478",          0,         0,    12.47,          0,        0,          0,        0,    7020.03,        0
"44582",    7242.96,     1.006,    12.47,    5.55096,  0.07664,    15.5067,   0.2141,    46.5202,  0.07308
"8160",    7241.83,    1.0059,    12.47,    5.87941,  0.08119,    14.9747,   0.2068,     44.924,  0.07799
"89783",          0,         0,    12.47,          0,        0,          0,        0,    7198.87,        0
"89791",          0,         0,    12.47,          0,        0,          0,        0,    7197.78,        0
"6584",    7204.36,    1.0007,    12.47,     13.786,   0.1914,    7.05364,  0.09791,    21.1609,   0.1692
"99422",          0,         0,    12.47,          0,        0,          0,        0,    7187.08,        0
"8113",    7251.93,    1.0073,    12.47,    6.16229,  0.08497,    47.4295,    0.654,    142.289,  0.07906
"8124",     7251.4,    1.0072,    12.47,     5.8832,  0.08113,    47.1591,   0.6503,    141.477,  0.07625
"14880",    7251.24,    1.0072,    12.47,    11.4225,   0.1575,    61.3469,    0.846,    184.041,   0.1459
"63707",     7250.1,     1.007,    12.47,    12.1962,   0.1682,    63.7017,   0.8786,    191.105,   0.1554
"74449",          0,         0,    12.47,          0,        0,          0,        0,    7147.03,        0
"74450",          0,         0,    12.47,          0,        0,          0,        0,    7146.88,        0
"14989",          0,         0,    12.47,          0,        0,          0,        0,     7083.1,        0
"100494",          0,         0,    12.47,          0,        0,          0,        0,     7083.1,        0
"63683",          0,         0,    12.47,          0,        0,          0,        0,    7302.63,        0
"107110",          0,         0,    12.47,          0,        0,          0,        0,    7302.59,        0
"1144242",          0,         0,    12.47,          0,        0,          0,        0,    7299.14,        0
"8121",          0,         0,    12.47,          0,        0,          0,        0,    7298.57,        0
"63668",          0,         0,    12.47,          0,        0,          0,        0,    7273.55,        0
"63671",          0,         0,    12.47,          0,        0,          0,        0,    7272.86,        0
"89784",          0,         0,    12.47,          0,        0,          0,        0,    7204.07,        0
"89781",          0,         0,    12.47,          0,        0,          0,        0,    7202.03,        0
"39734",          0,         0,    12.47,          0,        0,          0,        0,    7159.42,        0
"39751",          0,         0,    12.47,          0,        0,          0,        0,    7158.91,        0
"63657",    7279.83,    1.0111,    12.47,    6.49522,  0.08922,     36.199,   0.4973,    108.597,  0.08297
"63658",    7277.36,    1.0108,    12.47,    6.74581,   0.0927,    38.3564,   0.5271,    115.069,  0.08573
"74445",          0,         0,    12.47,          0,        0,          0,        0,     7197.4,        0
"74448",          0,         0,    12.47,          0,        0,          0,        0,    7195.92,        0
"1012641",          0,         0,    12.47,          0,        0,          0,        0,    7249.15,        0
"1012643",          0,         0,    12.47,          0,        0,          0,        0,    7249.15,        0
"39570",          0,         0,    12.47,          0,        0,          0,        0,    7148.04,        0
"39569",          0,         0,    12.47,          0,        0,          0,        0,    7147.85,        0
"14858",          0,         0,    12.47,          0,        0,          0,        0,     7247.9,        0
"14869",          0,         0,    12.47,          0,        0,          0,        0,     7247.9,        0
"89796",          0,         0,    12.47,          0,        0,          0,        0,    7254.85,        0
"89790",          0,         0,    12.47,          0,        0,          0,        0,    7254.69,        0
"28271",          0,         0,    12.47,          0,        0,          0,        0,    7317.96,        0
"28272",          0,         0,    12.47,          0,        0,          0,        0,    7317.82,        0
"69478",    7192.19,   0.99898,    12.47,    17.6684,   0.2457,    79.9667,    1.112,      239.9,   0.2455
"69477",    7192.19,   0.99898,    12.47,    17.6694,   0.2457,    79.9716,    1.112,    239.915,   0.2455
"8175",          0,         0,    12.47,          0,        0,          0,        0,       7196,        0
"8176",          0,         0,    12.47,          0,        0,          0,        0,    7195.86,        0
"8184",    7244.48,    1.0062,    12.47,    16.3488,   0.2257,    76.2153,    1.052,    228.646,   0.2072
"1144230",          0,         0,    12.47,          0,        0,          0,        0,    7234.76,        0
"39595",    7182.33,   0.99761,    12.47,    20.1856,    0.281,    85.2462,    1.187,    255.739,   0.2807
"39582",    7179.68,   0.99724,    12.47,    20.9363,   0.2916,     86.898,     1.21,    260.694,   0.2911
"46385",          0,         0,    12.47,          0,        0,          0,        0,    7191.57,        0
"46386",          0,         0,    12.47,          0,        0,          0,        0,    7190.71,        0
"106884",          0,         0,    12.47,          0,        0,          0,        0,     7217.4,        0
"1160493",          0,         0,    12.47,          0,        0,          0,        0,    7168.38,        0
"MDV201_8075ELB_INT",          0,         0,    12.47,          0,        0,          0,        0,    7168.35,        0
"8075",          0,         0,    12.47,          0,        0,          0,        0,    7168.35,        0
"69460",          0,         0,    12.47,          0,        0,          0,        0,    7164.98,        0
"MDV201_107997ELB_INT",          0,         0,    12.47,          0,        0,          0,        0,    7164.97,        0
"107997",          0,         0,    12.47,          0,        0,          0,        0,    7164.97,        0
"8180",          0,         0,    12.47,          0,        0,          0,        0,     7195.8,        0
"1160461",          0,         0,    12.47,          0,        0,          0,        0,    7177.62,        0
"8100",          0,         0,    12.47,          0,        0,          0,        0,    7176.07,        0
"39776",          0,         0,    12.47,          0,        0,          0,        0,    7231.83,        0
"33824",          0,         0,    12.47,          0,        0,          0,        0,    7231.22,        0
"1140227",          0,         0,    12.47,          0,        0,          0,        0,     7240.4,        0
"14873",          0,         0,    12.47,          0,        0,          0,        0,    7240.26,        0
"1160488",          0,         0,    12.47,          0,        0,          0,        0,    7224.63,        0
"MDV201_62249ELB_INT",          0,         0,    12.47,          0,        0,          0,        0,    7224.63,        0
"62249",          0,         0,    12.47,          0,        0,          0,        0,    7224.63,        0
"107106",          0,         0,    12.47,          0,        0,          0,        0,    7236.37,        0
"63634",          0,         0,    12.47,          0,        0,          0,        0,    7235.28,        0
"1160494",          0,         0,    12.47,          0,        0,          0,        0,    7168.33,        0
"1160467",          0,         0,    12.47,          0,        0,          0,        0,    7167.84,        0
"8185",          0,         0,    12.47,          0,        0,          0,        0,    7234.67,        0
"796",    7353.74,    1.0214,    12.47,    11.5839,   0.1575,     15.846,   0.2155,    47.5379,   0.1563
"791",    7347.94,    1.0206,    12.47,    11.1254,   0.1514,    17.0852,   0.2325,    51.2555,   0.1498
"62306",          0,         0,    12.47,          0,        0,          0,        0,    7199.18,        0
"62303",          0,         0,    12.47,          0,        0,          0,        0,    7198.87,        0
"14839",          0,         0,    12.47,          0,        0,          0,        0,    7314.87,        0
"100478",          0,         0,    12.47,          0,        0,          0,        0,    7314.87,        0
"58441",    7171.72,   0.99613,    12.47,    18.2988,   0.2552,    80.2711,    1.119,    240.813,   0.2505
"58446",    7171.38,   0.99609,    12.47,     18.155,   0.2532,    79.9067,    1.114,     239.72,   0.2482
"112112",          0,         0,    12.47,          0,        0,          0,        0,    7106.52,        0
"52515",          0,         0,    12.47,          0,        0,          0,        0,    7106.09,        0
"846",    7250.56,    1.0071,    12.47,    5.49609,   0.0758,    47.2709,    0.652,    141.813,  0.07376
"98795",    7250.56,    1.0071,    12.47,    5.49608,   0.0758,    47.2709,    0.652,    141.813,  0.07376
"39623",          0,         0,    12.47,          0,        0,          0,        0,    7154.96,        0
"39602",          0,         0,    12.47,          0,        0,          0,        0,    7154.55,        0
"56777",     7198.5,   0.99985,    12.47,    14.5499,   0.2021,    8.24246,   0.1145,    24.7274,   0.1821
"56778",    7197.26,   0.99968,    12.47,    14.4034,   0.2001,    6.76021,  0.09393,    20.2806,   0.1777
"44586",    7224.58,    1.0035,    12.47,    10.8997,   0.1509,    10.6371,   0.1472,    31.9112,   0.1508
"62239",    7223.66,    1.0033,    12.47,    10.9809,    0.152,    10.1433,   0.1404,    30.4298,   0.1521
"46394",    7191.73,   0.99891,    12.47,    14.1683,    0.197,    1.89522,  0.02635,    5.68565,   0.1804
"46393",    7191.73,   0.99891,    12.47,    14.1683,    0.197,    1.89522,  0.02635,    5.68565,   0.1804
"1144254",          0,         0,    12.47,          0,        0,          0,        0,    7243.95,        0
"28246",          0,         0,    12.47,          0,        0,          0,        0,     7243.9,        0
"14996",          0,         0,    12.47,          0,        0,          0,        0,    7028.02,        0
"39771",          0,         0,    12.47,          0,        0,          0,        0,    7027.79,        0
"74432",          0,         0,    12.47,          0,        0,          0,        0,    7180.51,        0
"108776",          0,         0,    12.47,          0,        0,          0,        0,    7180.51,        0
"1160489",          0,         0,    12.47,          0,        0,          0,        0,    7292.24,        0
"MDV201_795ELB_INT",          0,         0,    12.47,          0,        0,          0,        0,    7292.24,        0
"795",          0,         0,    12.47,          0,        0,          0,        0,    7292.24,        0
"14879",    7252.63,    1.0074,    12.47,     10.495,   0.1447,    58.5183,   0.8069,    175.555,   0.1346
"8099",          0,         0,    12.47,          0,        0,          0,        0,    7300.45,        0
"8103",          0,         0,    12.47,          0,        0,          0,        0,    7300.03,        0
"1000983",          0,         0,    12.47,          0,        0,          0,        0,    7179.28,        0
"56768",          0,         0,    12.47,          0,        0,          0,        0,    7177.81,        0
"62265",    7217.34,    1.0025,    12.47,     11.358,   0.1574,    5.13176,   0.0711,    15.3953,   0.1547
"62262",    7215.85,    1.0023,    12.47,    11.5449,     0.16,    3.67829,  0.05098,    11.0349,   0.1555
"39752",          0,         0,    12.47,          0,        0,          0,        0,    7027.59,        0
"1017350",          0,         0,    12.47,          0,        0,          0,        0,    7026.34,        0
"1017348",          0,         0,    12.47,          0,        0,          0,        0,    7025.56,        0
"56760",          0,         0,    12.47,          0,        0,          0,        0,    7182.34,        0
"56764",          0,         0,    12.47,          0,        0,          0,        0,    7181.87,        0
"39620",          0,         0,    12.47,          0,        0,          0,        0,    7161.83,        0
"39617",          0,         0,    12.47,          0,        0,          0,        0,    7161.41,        0
"39589",          0,         0,    12.47,          0,        0,          0,        0,    7151.37,        0
"39580",          0,         0,    12.47,          0,        0,          0,        0,    7151.32,        0
"74446",          0,         0,    12.47,          0,        0,          0,        0,    7146.35,        0
"74440",          0,         0,    12.47,          0,        0,          0,        0,    7145.96,        0
"58430",    7190.63,   0.99876,    12.47,    15.1166,   0.2102,    5.17328,  0.07194,    15.5198,   0.1956
"58429",    7190.19,    0.9987,    12.47,    15.5166,   0.2158,    6.53805,  0.09093,    19.6142,   0.2018
"28213",          0,         0,    12.47,          0,        0,          0,        0,    7223.31,        0
"21655",          0,         0,    12.47,          0,        0,          0,        0,    7221.85,        0
"63666",          0,         0,    12.47,          0,        0,          0,        0,    7299.33,        0
"28249",          0,         0,    12.47,          0,        0,          0,        0,    7296.86,        0
"105409",    7254.86,    1.0077,    12.47,    9.08861,   0.1253,    54.1173,   0.7459,    162.352,   0.1177
"52524",    7254.03,    1.0076,    12.47,    9.63086,   0.1328,    55.8195,   0.7695,    167.459,   0.1242
"74424",          0,         0,    12.47,          0,        0,          0,        0,    7161.52,        0
"39733",          0,         0,    12.47,          0,        0,          0,        0,     7160.3,        0
"8111",    7252.46,    1.0073,    12.47,    6.44542,  0.08887,    47.7071,   0.6578,    143.121,  0.08186
"836",          0,         0,    12.47,          0,        0,          0,        0,     7161.3,        0
"837",          0,         0,    12.47,          0,        0,          0,        0,    7159.79,        0
"1023346",    7354.32,    1.0215,    12.47,    11.5828,   0.1575,    15.8057,   0.2149,    47.4171,   0.1563
"MDV201_796USD_INT",    7353.84,    1.0214,    12.47,    11.5949,   0.1577,    15.8209,   0.2151,    47.4626,   0.1564
"28262",          0,         0,    12.47,          0,        0,          0,        0,    7241.41,        0
"28263",          0,         0,    12.47,          0,        0,          0,        0,    7241.37,        0
"52519",          0,         0,    12.47,          0,        0,          0,        0,    7082.81,        0
"52521",          0,         0,    12.47,          0,        0,          0,        0,    7082.36,        0
"28199",    7250.52,    1.0071,    12.47,    5.49942,  0.07585,    47.2815,   0.6521,    141.845,  0.07381
"28196",    7250.48,    1.0071,    12.47,     5.5029,   0.0759,    47.2926,   0.6523,    141.878,  0.07386
"28264",          0,         0,    12.47,          0,        0,          0,        0,    7241.47,        0
"28229",          0,         0,    12.47,          0,        0,          0,        0,    7303.02,        0
"52531",          0,         0,    12.47,          0,        0,          0,        0,    7302.78,        0
"14870",          0,         0,    12.47,          0,        0,          0,        0,    7246.23,        0
"46398",          0,         0,    12.47,          0,        0,          0,        0,    7177.54,        0
"46399",          0,         0,    12.47,          0,        0,          0,        0,    7175.77,        0
"62264",    7218.69,    1.0027,    12.47,    11.2339,   0.1556,    6.41847,  0.08891,    19.2554,   0.1542
"106895",          0,         0,    12.47,          0,        0,          0,        0,    7223.94,        0
"1163442",          0,         0,    12.47,          0,        0,          0,        0,    7212.43,        0
"MDV201_1163443ELB_INT",          0,         0,    12.47,          0,        0,          0,        0,    7212.43,        0
"1163443",          0,         0,    12.47,          0,        0,          0,        0,    7212.43,        0
"99420",    7205.93,    1.0009,    12.47,     13.431,   0.1864,    5.72851,   0.0795,    17.1855,   0.1618
"14828",    7237.87,    1.0053,    12.47,    22.1595,   0.3062,    93.2196,    1.288,    279.659,   0.2836
"1144249",          0,         0,    12.47,          0,        0,          0,        0,    7325.33,        0
"63726",          0,         0,    12.47,          0,        0,          0,        0,    7245.03,        0
"8134",          0,         0,    12.47,          0,        0,          0,        0,    7215.95,        0
"8131",          0,         0,    12.47,          0,        0,          0,        0,    7215.59,        0
"62232",          0,         0,    12.47,          0,        0,          0,        0,    7214.56,        0
"62234",          0,         0,    12.47,          0,        0,          0,        0,    7213.95,        0
"841",    7220.07,    1.0028,    12.47,    10.2043,   0.1413,    59.1409,   0.8191,    177.423,   0.1384
"8083",    7217.52,    1.0025,    12.47,    10.9721,    0.152,    61.2379,   0.8485,    183.714,   0.1501
"39579",          0,         0,    12.47,          0,        0,          0,        0,    7101.99,        0
"52518",          0,         0,    12.47,          0,        0,          0,        0,    7099.36,        0
"782",    7334.87,    1.0188,    12.47,     10.137,   0.1382,    20.6025,   0.2809,    61.8074,   0.1358
"783",    7329.31,     1.018,    12.47,    9.73284,   0.1328,    22.4115,   0.3058,    67.2344,     0.13
"8132",          0,         0,    12.47,          0,        0,          0,        0,    7214.58,        0
"8133",          0,         0,    12.47,          0,        0,          0,        0,    7214.55,        0
"MDV201_C_1P032_1160490_INT",          0,         0,    12.47,          0,        0,          0,        0,    7175.28,        0
"1160490",          0,         0,    12.47,          0,        0,          0,        0,    7175.28,        0
"100477",          0,         0,    12.47,          0,        0,          0,        0,    7314.89,        0
"28274",          0,         0,    12.47,          0,        0,          0,        0,    7314.69,        0
"63677",          0,         0,    12.47,          0,        0,          0,        0,     7244.4,        0
"63676",          0,         0,    12.47,          0,        0,          0,        0,    7244.19,        0
"102184",          0,         0,    12.47,          0,        0,          0,        0,    7236.54,        0
"28266",          0,         0,    12.47,          0,        0,          0,        0,     7236.5,        0
"39772",          0,         0,    12.47,          0,        0,          0,        0,    7231.81,        0
"39773",          0,         0,    12.47,          0,        0,          0,        0,    7231.71,        0
"28241",          0,         0,    12.47,          0,        0,          0,        0,    7238.86,        0
"28238",          0,         0,    12.47,          0,        0,          0,        0,    7238.07,        0
"848",          0,         0,    12.47,          0,        0,          0,        0,    7167.58,        0
"1144260",          0,         0,    12.47,          0,        0,          0,        0,    7167.56,        0
"8095",          0,         0,    12.47,          0,        0,          0,        0,    7277.84,        0
"8098",          0,         0,    12.47,          0,        0,          0,        0,    7277.63,        0
"849",          0,         0,    12.47,          0,        0,          0,        0,    7163.98,        0
"850",          0,         0,    12.47,          0,        0,          0,        0,    7163.23,        0
"63714",    7249.51,    1.0069,    12.47,    3.79669,  0.05237,    18.8329,   0.2598,    56.4987,   0.0456
"63711",    7244.86,    1.0063,    12.47,    5.01727,  0.06925,    16.4238,   0.2267,    49.2714,  0.06499
"1160484",          0,         0,    12.47,          0,        0,          0,        0,    7019.03,        0
"1160485",          0,         0,    12.47,          0,        0,          0,        0,    7018.72,        0
"8127",          0,         0,    12.47,          0,        0,          0,        0,    7215.26,        0
"8128",          0,         0,    12.47,          0,        0,          0,        0,    7215.02,        0
"8119",          0,         0,    12.47,          0,        0,          0,        0,    7191.26,        0
"8117",          0,         0,    12.47,          0,        0,          0,        0,     7191.1,        0
"63709",          0,         0,    12.47,          0,        0,          0,        0,    7242.23,        0
"63710",          0,         0,    12.47,          0,        0,          0,        0,    7242.04,        0
"21654",          0,         0,    12.47,          0,        0,          0,        0,    7220.87,        0
"21653",          0,         0,    12.47,          0,        0,          0,        0,    7219.84,        0
"63708",          0,         0,    12.47,          0,        0,          0,        0,    7299.08,        0
"63703",          0,         0,    12.47,          0,        0,          0,        0,    7298.29,        0
"58411",    7189.58,   0.99861,    12.47,    15.9598,    0.222,    7.67636,   0.1068,    23.0291,   0.2076
"106254",          0,         0,    12.47,          0,        0,          0,        0,     7184.1,        0
"1012405",          0,         0,    12.47,          0,        0,          0,        0,    7255.74,        0
"1012407",          0,         0,    12.47,          0,        0,          0,        0,     7255.6,        0
"810",    7254.08,    1.0076,    12.47,     7.3123,   0.1008,    48.9536,   0.6748,    146.861,  0.09206
"1010731",    7253.34,    1.0075,    12.47,     6.9159,  0.09535,    48.3167,   0.6661,     144.95,  0.08705
"39745",          0,         0,    12.47,          0,        0,          0,        0,    7147.54,        0
"74453",          0,         0,    12.47,          0,        0,          0,        0,    7146.66,        0
"6580",    7206.72,     1.001,    12.47,    13.2573,    0.184,     5.0625,  0.07025,    15.1875,   0.1606
"6582",    7206.01,    1.0009,    12.47,    13.4169,   0.1862,    5.68967,  0.07896,     17.069,   0.1614
"1012412",          0,         0,    12.47,          0,        0,          0,        0,    7255.49,        0
"69622",          0,         0,    12.47,          0,        0,          0,        0,     7089.8,        0
"69620",          0,         0,    12.47,          0,        0,          0,        0,    7088.25,        0
"63654",    7272.67,    1.0102,    12.47,    4.66409,  0.06413,    32.0852,   0.4412,    96.2555,  0.06267
"14891",    7267.65,    1.0095,    12.47,    3.52794,  0.04854,    29.0968,   0.4004,    87.2904,  0.04855
"56756",          0,         0,    12.47,          0,        0,          0,        0,    7025.88,        0
"1103250",          0,         0,    12.47,          0,        0,          0,        0,    7025.88,        0
"6581",          0,         0,    12.47,          0,        0,          0,        0,    7026.35,        0
"14876",          0,         0,    12.47,          0,        0,          0,        0,    7299.13,        0
"14872",          0,         0,    12.47,          0,        0,          0,        0,    7298.95,        0
"1144245",          0,         0,    12.47,          0,        0,          0,        0,    7124.24,        0
"62301",          0,         0,    12.47,          0,        0,          0,        0,    7124.16,        0
"806",          0,         0,    12.47,          0,        0,          0,        0,    7229.77,        0
"809",          0,         0,    12.47,          0,        0,          0,        0,    7228.32,        0
"28248",          0,         0,    12.47,          0,        0,          0,        0,     7238.9,        0
"28242",          0,         0,    12.47,          0,        0,          0,        0,    7238.68,        0
"74420",     7195.1,   0.99938,    12.47,    14.2706,   0.1983,    4.26328,  0.05925,    12.7898,   0.1728
"74428",    7194.52,    0.9993,    12.47,    14.2516,   0.1981,    3.63343,   0.0505,    10.9003,   0.1741
"14831",          0,         0,    12.47,          0,        0,          0,        0,    7323.49,        0
"14833",          0,         0,    12.47,          0,        0,          0,        0,    7320.44,        0
"28251",          0,         0,    12.47,          0,        0,          0,        0,    7295.08,        0
"14893",          0,         0,    12.47,          0,        0,          0,        0,    7293.28,        0
"74456",          0,         0,    12.47,          0,        0,          0,        0,    7167.98,        0
"46407",          0,         0,    12.47,          0,        0,          0,        0,    7164.25,        0
"94736",          0,         0,    12.47,          0,        0,          0,        0,    7147.85,        0
"94737",          0,         0,    12.47,          0,        0,          0,        0,    7147.73,        0
"89779",          0,         0,    12.47,          0,        0,          0,        0,    7254.34,        0
"89780",          0,         0,    12.47,          0,        0,          0,        0,    7254.13,        0
"100480",          0,         0,    12.47,          0,        0,          0,        0,    7299.56,        0
"1000988",          0,         0,    12.47,          0,        0,          0,        0,    7193.14,        0
"1000987",          0,         0,    12.47,          0,        0,          0,        0,    7193.11,        0
"28287",     7169.7,   0.99585,    12.47,    17.4799,   0.2438,    78.1894,    1.091,    234.568,   0.2372
"28288",    7169.31,    0.9958,    12.47,    17.3481,    0.242,    77.7653,    1.085,    233.296,   0.2346
"MDV201_1010732USD_INT",    7253.32,    1.0075,    12.47,    6.90625,  0.09522,    48.3097,    0.666,    144.929,  0.08693
"1010732",    7253.32,    1.0075,    12.47,    6.90221,  0.09516,    48.2979,   0.6659,    144.894,   0.0869
"28226",    7257.74,    1.0081,    12.47,    7.91538,   0.1091,    49.7058,   0.6849,    149.117,   0.1007
"1144262",          0,         0,    12.47,          0,        0,          0,        0,    7306.23,        0
...