OpenDSS/ckt5_Losses.Txt

LOSSES REPORT

Power Delivery Element Loss Report

Element                  kW Losses    % of Power   kvar Losses

"Line.MDV201_CONNECTOR"                       0.00040,      0.0     0.00398592
"Line.MDV201_HN_1_275_A94744"                 0.00007,      0.0     -0.0106342
"Line.MDV201_HN_2_466_C62235"                 0.01173,     0.01     0.00642837
"Line.MDV201_DA_8_780_A1144234"               0.00079,      0.0     -0.015308
"Line.MDV201_1160486ELB-1_SW"                 0.00006,      0.0     3.62218E-005
"Line.MDV201_1160486ELB"                      0.00000,      0.0     8.63393E-009
"Line.MDV201_HN_2P009_B1160473"               0.02714,     0.01     -0.0662093
"Line.MDV201_HN_2_088_ABC8164"                0.71236,     0.04     1.07724
"Line.MDV201_HN_2_319_B39610"                 0.00005,      0.0     -0.00254314
"Line.MDV201_HN_2_417_A842"                   0.00791,     0.01     -0.0010726
"Line.MDV201_HN_2_941_B39760"                 0.00217,     0.01     -0.00630277
"Line.MDV201_1160480ELB-1_SW"                 0.00045,      0.0     0.000430521
"Line.MDV201_1160480ELB"                      0.00000,      0.0     6.87262E-008
"Line.C_1P034_SW"                             0.00013,      0.0     0.000103971
"Line.MDV201_8088ELB"                         0.00000,      0.0     1.90907E-008
"Line.MDV201_HN_2_499_ABC834"                 2.23301,     0.09     1.80992
"Line.MDV201_1160478ELB-1_SW"                 0.00024,      0.0     0.000224282
"Line.MDV201_1160478ELB"                      0.00000,      0.0     3.72958E-008
"Line.MDV201_HN_2_217_ABC8160"                0.25241,     0.01     0.385016
"Line.MDV201_HN_2_942_C89791"                 0.01456,     0.01     0.00350635
"Line.MDV201_99422FUSE"                       0.00001,      0.0     9.37879E-005
"Line.MDV201_HN_2_140_ABC8124"                0.02523,     0.01     -0.00912687
"Line.MDV201_HN_2_818_ABC63707"               0.22882,     0.03     0.333101
"Line.MDV201_DA_8_731_C74450"                 0.00028,      0.0     -0.00618803
"Line.MDV201_100494FUSE"                      0.00000,      0.0     -0.000340189
"Line.MDV201_107110FUSE"                      0.00002,      0.0     0.00087379
"Line.MDV201_HN_2_477_C8121"                  0.00424,     0.01     -0.00390973
"Line.MDV201_HN_2_876_C63671"                 0.00805,     0.01     0.00179215
"Line.MDV201_HN_2_671_C89781"                 0.06214,     0.02     0.0587045
"Line.MDV201_DA_8_930_A39751"                 0.00297,     0.01     -0.00643437
"Line.MDV201_HN_2_394_ABC63658"               0.89794,     0.02     3.07739
"Line.MDV201_DA_8_687_B74448"                 0.03165,     0.02     0.017032
"Line.MDV201_1012643FUSE"                     0.00000,      0.0     -0.000357708
"Line.MDV201_HN_1_238_A39569"                 0.00037,      0.0     -0.00856464
"Line.MDV201_14869FUSE"                       0.00001,      0.0     -8.48019E-005
"Line.MDV201_HN_1_156_C89790"                 0.00022,      0.0     -0.0129048
"Line.MDV201_HN_2_318_C28272"                 0.00016,      0.0     -0.00983065
"Line.MDV201_C_1_140_ABC69477"                0.00000,      0.0     -0.0694834
"Line.MDV201_HN_2_948_C8176"                  0.00033,      0.0     -0.00624047
"Line.MDV201_1144230FUSE"                     0.00000,      0.0     -0.000301142
"Line.MDV201_HN_2_105_ABC39582"               0.36310,     0.04     0.263038
"Line.MDV201_DA_8_691_B46386"                 0.01109,     0.01     0.00227262
"Line.MDV201_HN_2_457_C62244"                 0.00950,     0.01     0.0057402
"Line.C_1P038_SW"                             0.00049,      0.0     0.000468722
"Line.MDV201_8075ELB"                         0.00000,      0.0     7.4682E-008
"Line.C_1P032_SW"                             0.00001,      0.0     -1.11544E-005
"Line.MDV201_107997ELB"                       0.00000,      0.0     1.54455E-009
"Line.MDV201_HN_2_949_C8180"                  0.00015,      0.0     -0.00281422
"Line.MDV201_C_1P024_A8100"                   0.02895,     0.02     -0.152857
"Line.MDV201_HN_2_166_C33824"                 0.00285,     0.01     -0.00712586
"Line.MDV201_HN_2_827_A14873"                 0.00034,      0.0     -0.00542704
"Line.HN_2P017_SW"                            0.00000,      0.0     -1.94332E-005
"Line.MDV201_62249ELB"                        0.00000,      0.0     3.37428E-010
"Line.MDV201_HN_2_397_B63634"                 0.01457,     0.01     0.00343724
"Line.MDV201_C_1P037_A1160467"                0.00865,     0.01     -0.051527
"Line.MDV201_HN_2_280_A8185"                  0.00008,      0.0     -0.0054296
"Line.MDV201_HN_2_794_ABC791"                 2.76443,     0.04     9.57873
"Line.MDV201_HN_2_677_C62303"                 0.00129,     0.00     -0.00707506
"Line.MDV201_100478FUSE"                      0.00000,      0.0     -0.000364031
"Line.MDV201_HN_2_115_ABC58446"               0.01609,     0.01     -0.00803413
"Line.MDV201_HN_2_895_B52515"                 0.00490,     0.01     0.000327064
"Line.MDV201_98795FUSE"                       0.00000,      0.0     -0.00155448
"Line.MDV201_HN_2_246_B39602"                 0.00197,     0.00     -0.00739712
"Line.MDV201_DA_8_149_ABC56778"               0.09388,     0.02     0.0873346
"Line.MDV201_HN_2_083_ABC62239"               0.13341,     0.01     0.189324
"Line.MDV201_DA_8_145_ABC46393"               0.00000,      0.0     -0.043592
"Line.MDV201_HN_2_729_B28246"                 0.00005,      0.0     -0.0036065
"Line.MDV201_HN_2_954_B39771"                 0.00073,      0.0     -0.00600744
"Line.MDV201_108776FUSE"                      0.00000,      0.0     -0.000346696
"Line.HN_2P028_SW"                            0.00000,      0.0     -1.93619E-005
"Line.MDV201_795ELB"                          0.00000,      0.0     4.09988E-010
"Line.MDV201_1140227FUSE"                     0.00000,      0.0     -0.000349017
"Line.MDV201_HN_2_488_C8103"                  0.00297,     0.01     -0.00320559
"Line.MDV201_DA_8_917_A56768"                 0.05387,     0.02     0.0530283
"Line.MDV201_HN_2_029_ABC62262"               0.21261,     0.02     0.304958
"Line.MDV201_HN_2_955_B39752"                 0.00049,      0.0     -0.00626158
"Line.MDV201_DA_8_215_B1017348"               0.00391,     0.01     -0.0111551
"Line.MDV201_DA_8_678_A56764"                 0.00243,     0.01     -0.00609308
"Line.MDV201_HN_2_834_B39617"                 0.00245,     0.00     -0.00532611
"Line.MDV201_HN_2_906_A39580"                 0.00011,      0.0     -0.00256703
"Line.MDV201_DA_8_734_C74440"                 0.00273,     0.00     -0.00287183
"Line.MDV201_DA_8_157_ABC58429"               0.03131,     0.01     0.0339712
"Line.MDV201_HN_2_605_A21655"                 0.01965,     0.02     0.00482823
"Line.MDV201_HN_2_636_AC28249"                0.05244,     0.02     0.0357179
"Line.MDV201_HN_2_705_ABC52524"               0.15514,     0.02     0.245323
"Line.MDV201_DA_8_928_A39733"                 0.01560,     0.01     0.00632351
"Line.MDV201_HN_2_383_ABC8113"                0.02522,     0.01     -0.00913322
"Line.MDV201_HN_2_803_B837"                   0.03312,     0.02     0.027628
"Line.SW-HN_2_793_SW"                         0.39859,     0.01     0.398372
"Line.MDV201_796USD"                          0.00009,      0.0     0.286172
"Line.MDV201_HN_1_332_C28263"                 0.00002,      0.0     -0.00591321
"Line.MDV201_HN_2_890_B52521"                 0.00179,     0.01     -0.00809006
"Line.MDV201_HN_2_377_ABC28196"               0.00008,      0.0     -0.035702
"Line.MDV201_HN_1_331_C28262"                 0.00004,      0.0     -0.00886997
"Line.MDV201_HN_2_628_C52531"                 0.00077,      0.0     -0.00779315
"Line.MDV201_HN_2_964_A14870"                 0.02208,     0.02     0.004971
"Line.MDV201_DA_8_200_C46399"                 0.04792,     0.02     0.0208231
"Line.MDV201_106895FUSE"                      0.00000,      0.0     -0.00035432
"Line.HN_2P054_SW"                            0.00000,      0.0     -2.15738E-005
"Line.MDV201_1163443ELB"                      0.00000,      0.0     3.46945E-021
"Line.MDV201_DA_8_142_ABC6584"                0.19691,     0.02     0.272068
"Line.MDV201_1144249FUSE"                     0.00001,      0.0     1.43139E-005
"Line.MDV201_HN_2_965_A63726"                 0.01325,     0.01     0.000122418
"Line.MDV201_C_1_410_A8131"                   0.00155,     0.00     -0.00639299
"Line.MDV201_HN_2_463_C62234"                 0.00588,     0.01     -0.000755117
"Line.MDV201_HN_2_133_ABC8083"                0.74584,     0.04     0.648382
"Line.MDV201_HN_2_840_B52518"                 0.08990,     0.03     0.0873817
"Line.MDV201_HN_2_808_ABC783"                 2.65985,     0.04     9.27241
"Line.MDV201_HN_2_608_A8133"                  0.00001,      0.0     -0.00529002
"Line.MDV201_C_1P032_1160490"                 0.00000,      0.0     6.93889E-021
"Line.MDV201_HN_2_077_C28274"                 0.00027,      0.0     -0.0099185
"Line.MDV201_HN_2_711_A63676"                 0.00075,      0.0     -0.00436729
"Line.MDV201_HN_2_923_C28266"                 0.00003,      0.0     -0.00387118
"Line.MDV201_HN_21041_C39773"                 0.00009,      0.0     -0.0125305
"Line.MDV201_HN_2_644_A28238"                 0.00880,     0.01     0.00151716
"Line.MDV201_1144260FUSE"                     0.00006,      0.0     0.00269389
"Line.MDV201_HN_2_539_C8098"                  0.00069,      0.0     -0.00527134
"Line.MDV201_HN_2_800_B850"                   0.00995,     0.01     0.00426983
"Line.MDV201_HN_2_092_ABC63711"               1.03150,     0.05     1.56875
"Line.MDV201_HN_2P014_B1160485"               0.00324,     0.00     -0.0531716
"Line.MDV201_C_1_412_A8128"                   0.00092,     0.00     -0.00504794
"Line.MDV201_HN_2_533_A8117"                  0.00033,      0.0     -0.00644203
"Line.MDV201_HN_2_970_A63710"                 0.00048,      0.0     -0.00600704
"Line.MDV201_C_1_400_A21653"                  0.01201,     0.01     0.00105047
"Line.MDV201_HN_2_124_C63703"                 0.00269,     0.01     -0.0138604
"Line.MDV201_106254FUSE"                      0.00000,      0.0     -0.000350461
"Line.MDV201_HN_1_380_C1012407"               0.00031,      0.0     -0.00559947
"Line.MDV201_HN_2_381_ABC1010731"             0.04015,     0.01     0.00384688
"Line.MDV201_DA_8_732_C74453"                 0.00846,     0.01     -0.00176828
"Line.MDV201_DA_8_144_ABC6582"                0.09211,     0.01     0.128434
"Line.MDV201_HN_1_147_C1012412"               0.00050,      0.0     -0.00765807
"Line.MDV201_HN_2_846_B69620"                 0.03654,     0.02     0.0317559
"Line.MDV201_HN_2_814_ABC14891"               1.15140,     0.05     1.74654
"Line.MDV201_DA_8_868_B1103250"               0.00000,      0.0     -0.00601275
"Line.MDV201_1017350FUSE"                     0.00000,      0.0     -0.000290346
"Line.MDV201_HN_2_719_C14872"                 0.00088,      0.0     -0.00305027
"Line.MDV201_HN_2_930_B62301"                 0.00006,      0.0     -0.00999963
"Line.MDV201_HN_2_407_B809"                   0.02495,     0.02     0.0107182
"Line.MDV201_HN_2_650_A28242"                 0.00067,      0.0     -0.00722341
"Line.MDV201_DA_8_492_ABC74428"               0.04173,     0.01     0.0361147
"Line.MDV201_HN_2_151_C14833"                 0.04544,     0.04     0.0101708
"Line.MDV201_HN_2_641_AC14893"                0.03700,     0.02     0.0248857
"Line.MDV201_DA_8_203_C46407"                 0.08898,     0.05     0.0364739
"Line.MDV201_HN_1_172_A94737"                 0.00011,      0.0     -0.00854865
"Line.MDV201_HN_1_165_C89780"                 0.00035,      0.0     -0.00836446
"Line.MDV201_HN_2_127_C63708"                 0.00217,     0.01     -0.00599901
"Line.MDV201_PB_0928_A1000987"                0.00002,      0.0     -0.0986893
"Line.MDV201_HN_2_128_ABC28288"               0.01834,     0.01     -0.0173702
"Line.SW-HN_2_381_SW"                         0.00093,     0.00     0.000716899
"Line.MDV201_1010732USD"                      0.00001,      0.0     -0.000710487
"Line.MDV201_1144262FUSE"                     0.00001,      0.0     -3.90927E-005
"Line.MDV201_C_1_138_ABC1127424"              0.00000,      0.0     -0.0596699
"Line.MDV201_DA_8_234_ABC56762"               0.10949,     0.01     0.134167
"Line.MDV201_1144253FUSE"                     0.00000,      0.0     -0.000329947
"Line.MDV201_HN_2_120_A28281"                 0.00269,     0.01     -0.00637152
"Line.MDV201_HN_1_274_A94747"                 0.00000,      0.0     -0.00656801
"Line.MDV201_HN_2_852_B39588"                 0.00390,     0.01     -0.00390723
"Line.MDV201_HN_2_820_B39623"                 0.00410,     0.01     -0.00560503
"Line.MDV201_C_1_506_A8143"                   0.02245,     0.01     0.0131521
"Line.MDV201_DA_8_216_B1017349"               0.00090,     0.00     -0.00749191
"Line.MDV201_HN_2_291_ABC63681"               0.19836,     0.01     0.396672
"Line.MDV201_106259FUSE"                      0.00002,      0.0     0.000870382
"Line.MDV201_HN_2_382_ABC823"                 0.02090,     0.01     0.00182949
"Line.MDV201_HN_2_821_B39618"                 0.00101,     0.00     -0.00664027
"Line.MDV201_HN_2_927_C94731"                 0.00019,      0.0     -0.00907717
"Line.MDV201_HN_2_235_ABC854"                 0.00005,      0.0     -0.0317717
"Line.MDV201_HN_2_306_ABC28286"               0.01194,     0.01     -0.00836561
"Line.MDV201_C_1_411_A8127"                   0.00121,     0.00     -0.00668183
"Line.MDV201_HN_2_520_A8092"                  0.01667,     0.02     0.00346465
"Line.MDV201_HN_2_420_A814"                   0.00902,     0.01     0.00252562
"Line.MDV201_HN_2_153_B14829"                 0.80752,     0.12     0.413932
"Line.MDV201_HN_2_870_C831"                   0.03407,     0.02     0.0285242
"Line.MDV201_C_1_354_B1008227"                0.00009,      0.0     -0.00786513
"Line.MDV201_HN_21036_ABC28186"               0.00006,      0.0     -0.0372045
"Line.MDV201_DA_8_139_B56756"                 0.00088,      0.0     -0.0149459
"Line.MDV201_HN_2_422_A790"                   0.02290,     0.02     0.0101567
"Line.HN_2P011_SW"                            0.00045,      0.0     0.000430808
"Line.MDV201_15005ELB"                        0.00000,      0.0     6.87694E-008
"Line.MDV201_1149717FUSE"                     0.00000,      0.0     -0.00152761
"Line.MDV201_DA_8_218_B8204"                  0.00006,      0.0     -0.00686509
"Line.MDV201_HN_2_387_B804"                   0.00127,     0.00     -0.00625337
"Line.MDV201_HN_2_859_B94734"                 0.00006,      0.0     -0.00713103
"Line.MDV201_HN_2_830_A14875"                 0.00002,      0.0     -0.00438777
"Line.MDV201_1012406FUSE"                     0.00000,      0.0     -0.000284848
"Line.MDV201_HN_2_186_ABC15011"               0.35889,     0.03     0.510978
"Line.MDV201_HN_2_522_C855"                   0.01657,     0.02     0.00160866
"Line.MDV201_108027FUSE"                      0.00000,      0.0     -0.000357199
"Line.MDV201_1010727FUSE"                     0.00001,      0.0     0.000217869
"Line.MDV201_HN_2_831_ABC39762"               0.00000,      0.0     -0.00812302
"Line.MDV201_1145433FUSE"                     0.00000,      0.0     -0.00035779
"Line.MDV201_HN_2_540_C8108"                  0.00019,      0.0     -0.00439878
"Line.MDV201_HN_2_653_A14878"                 0.00021,      0.0     -0.00758178
"Line.MDV201_C_1_083_B69488"                  0.00030,      0.0     -0.00362856
"Line.MDV201_HN_2P016_B1160487"               0.00103,     0.00     -0.116115
"Line.MDV201_HN_2_223_B8168"                  0.00019,      0.0     -0.011777
"Line.MDV201_1163441ELB-1_SW"                 0.00000,      0.0     -2.15738E-005
"Line.MDV201_1163441ELB"                      0.00000,      0.0     2.84075E-014
"Line.MDV201_HN_2_731_B14852"                 0.00004,      0.0     -0.0126872
"Line.C_1P035_SW"                             0.00024,      0.0     0.000218897
"Line.MDV201_8082ELB"                         0.00000,      0.0     3.66059E-008
"Line.MDV201_HN_2_064_C14871"                 0.00144,     0.00     -0.00489812
"Line.MDV201_HN_2_878_B1144266"               0.00179,     0.00     -0.00307351
"Line.MDV201_HN_2_149_C28298"                 0.01033,     0.02     -0.00705881
"Line.MDV201_HN_1_177_C69626"                 0.00004,      0.0     -0.00248375
"Line.MDV201_DA_8_809_C46402"                 0.00009,      0.0     -0.00933637
"Line.MDV201_1144263FUSE"                     0.00000,      0.0     -0.000273002
"Line.MDV201_HN_2_868_C833"                   0.06479,     0.03     0.0593793
"Line.MDV201_HN_2_836_B39616"                 0.00024,      0.0     -0.00525208
"Line.MDV201_103731FUSE"                      0.00000,      0.0     -0.00029882
"Line.MDV201_C_1P031_A1160501"                0.00010,      0.0     -0.082271
"Line.MDV201_HN_2_404_B799"                   0.00003,      0.0     -0.00357162
"Line.MDV201_HN_2_121_C28294"                 0.00024,      0.0     -0.00600289
"Line.MDV201_C_1_389_A1000986"                0.00469,     0.01     -0.00207873
"Line.MDV201_HN_2_491_C8114"                  0.00164,     0.00     -0.00753824
"Line.MDV201_HN_2_837_B39584"                 0.07337,     0.02     0.0729125
"Line.MDV201_DA_8_150_ABC56781"               0.07483,     0.01     0.0673054
"Line.MDV201_C_1P026_A1160505"                0.00093,     0.00     -0.0717244
"Line.MDV201_HN_2_659_C62237"                 0.14404,     0.04     0.144985
"Line.MDV201_HN_2_893_A39590"                 0.01445,     0.02     0.00110089
"Line.HN_2P009_SW"                            0.00080,      0.0     0.000774605
"Line.MDV201_15008ELB"                        0.00000,      0.0     1.21166E-007
"Line.MDV201_HN_2_173_B39600"                 0.00000,      0.0     -0.00798634
"Line.MDV201_HN_2_220_B44580"                 0.00100,     0.01     -0.0103738
"Line.MDV201_HN_2_630_C28228"                 0.00251,     0.00     -0.00509427
"Line.MDV201_HN_2_427_B826"                   0.00024,      0.0     -0.00855656
"Line.MDV201_C_1P032_A69460"                  0.00039,      0.0     -0.0920677
"Line.MDV201_HN_2_350_ABC52517"               0.05030,     0.01     0.0185301
"Line.MDV201_HN_2_796_ABC782"                 3.15502,     0.04     10.9985
"Line.MDV201_HN_1_174_A94742"                 0.00012,      0.0     -0.00980717
"Line.MDV201_HN_2_084_B38389"                 0.00012,      0.0     -0.0118739
"Line.MDV201_HN_2_875_C63670"                 0.00001,      0.0     -0.00430433
"Line.MDV201_1160504ELB-1_SW"                 0.00003,      0.0     9.24065E-006
"Line.MDV201_1160504ELB"                      0.00000,      0.0     4.66315E-009
"Line.MDV201_HN_2P028_A1160489"               0.00018,      0.0     -0.165336
"Line.MDV201_HN_2_622_C28223"                 0.00724,     0.01     -0.0012141
"Line.MDV201_HN_2_842_B94740"                 0.07290,     0.03     0.0684584
"Line.MDV201_C_1_066_ABC8078"                 0.38131,     0.03     0.304321
"Line.MDV201_HN_1_173_A94739"                 0.00012,      0.0     -0.00969313
"Line.MDV201_HN_1_150_C1012408"               0.00015,      0.0     -0.00229906
"Line.MDV201_C_1P022_A1160458"                0.02755,     0.01     -0.0638382
"Line.MDV201_106884FUSE"                      0.00001,      0.0     0.000101729
"Line.MDV201_1144243FUSE"                     0.00000,      0.0     -0.000278151
"Line.MDV201_HN_2_843_B69621"                 0.06133,     0.03     0.0565208
"Line.MDV201_1160472ELB-1_SW"                 0.00101,     0.00     0.000993569
"Line.MDV201_1160472ELB"                      0.00000,      0.0     1.54539E-007
"Line.MDV201_HN_2_356_C28301"                 0.00078,      0.0     -0.00563911
"Line.MDV201_HN_2_666_C62312"                 0.00030,      0.0     -0.00832594
"Line.MDV201_HN_2_802_B836"                   0.03408,     0.02     0.0294648
"Line.MDV201_HN_1_210_A28279"                 0.00086,      0.0     -0.00490003
"Line.MDV201_HN_2_616_ABC28226"               0.13202,     0.01     0.262692
"Line.MDV201_HN_2_212_C14834"                 0.02765,     0.03     0.00369157
"Line.MDV201_HN_1_154_C89826"                 0.00015,      0.0     -0.00864719
"Line.MDV201_HN_2_393_ABC63659"               1.26743,     0.03     4.34403
"Line.MDV201_HN_2_911_C44579"                 0.00000,      0.0     -0.0107014
"Line.MDV201_HN_2_030_ABC62265"               0.19334,     0.02     0.276513
"Line.MDV201_HN_2_638_C28237"                 0.00007,      0.0     -0.00742735
"Line.MDV201_DA_8_946_B56776"                 0.00018,      0.0     -0.00760848
"Line.MDV201_HN_2_352_ABC69623"               0.05260,     0.02     0.0195169
"Line.MDV201_HN_2_793_ABC1023346_SW"          0.39859,     0.01     0.398371
"Line.MDV201_HN_2_793_ABC1023346"             2.11563,     0.03     7.33058
"Line.MDV201_108774FUSE"                      0.00000,      0.0     -0.000349951
"Line.MDV201_DA_8_786_B1144236"               0.09948,     0.05     0.0412183
"Line.MDV201_HN_2_492_C8123"                  0.00089,      0.0     -0.00799775
"Line.MDV201_HN_2_848_B14854"                 0.03264,     0.02     0.0269371
"Line.HN_2P014_SW"                            0.00014,      0.0     0.00011533
"Line.MDV201_39754ELB"                        0.00000,      0.0     2.06899E-008
"Line.MDV201_1023343FUSE"                     0.00000,      0.0     -0.000349771
"Line.MDV201_HN_2P026_A1010728"               0.00006,      0.0     -0.0588998
"Line.MDV201_HN_2_535_C8140"                  0.00570,     0.01     -0.0037028
"Line.MDV201_106883FUSE"                      0.00008,      0.0     0.00356395
"Line.MDV201_HN_2_408_ABC63655"               2.69605,     0.04     9.31479
"Line.MDV201_HN_2_849_B94730"                 0.01601,     0.01     0.00902965
"Line.MDV201_104355FUSE"                      0.00000,      0.0     -0.000335994
"Line.MDV201_DA_8_053_A63763"                 0.00000,      0.0     -0.0110504
"Line.MDV201_HN_21040_C39772"                 0.00002,      0.0     -0.00341357
"Line.MDV201_HN_2_672_C62308"                 0.00167,     0.00     -0.00542796
"Line.MDV201_HN_2_643_A28241"                 0.01374,     0.01     0.00512814
"Line.MDV201_DA_8_204_C46404"                 0.03384,     0.02     0.0130421
"Line.MDV201_HN_1_178_C69653"                 0.00050,      0.0     -0.00993833
"Line.MDV201_HN_2_360_ABC8165"                0.20363,     0.01     0.306597
"Line.MDV201_HN_2_606_A8132"                  0.00026,      0.0     -0.00523532
"Line.MDV201_HN_2_810_ABC63685"               3.40973,     0.05     11.8867
"Line.MDV201_HN_2_602_A8151"                  0.00857,     0.01     0.0037455
"Line.MDV201_HN_2_147_C14840"                 0.00100,     0.00     -0.00672014
"Line.MDV201_HN_2_461_C62251"                 0.00139,     0.00     -0.00518871
"Line.MDV201_HN_2_527_C8153"                  0.00086,      0.0     -0.00826788
"Line.MDV201_HN_2_635_AC63666"                0.08765,     0.02     0.0638383
"Line.MDV201_C_1P032_A1160490"                0.00000,      0.0     -0.11084
"Line.MDV201_1011953FUSE"                     0.00000,      0.0     -0.00155363
"Line.MDV201_HN_1_450_B52513"                 0.00197,     0.00     -0.00381439
"Line.MDV201_HN_2_062_C28277"                 0.00003,      0.0     -0.00629705
"Line.MDV201_HN_2_854_B39586"                 0.00082,      0.0     -0.00505781
"Line.MDV201_HN_2_458_B39599"                 0.00015,      0.0     -0.00758886
"Line.MDV201_C_1P034_A1160492"                0.00671,     0.01     -0.124683
"Line.MDV201_1160484ELB-1_SW"                 0.00014,      0.0     0.000115261
"Line.MDV201_1160484ELB"                      0.00000,      0.0     2.06797E-008
"Line.MDV201_C_1_124_ABC69481"                0.00377,     0.00     -0.0565626
"Line.MDV201_1160461ELB-1_SW"                 0.00042,      0.0     0.000396137
"Line.MDV201_1160461ELB"                      0.00000,      0.0     6.36273E-008
"Line.MDV201_106882FUSE"                      0.00000,      0.0     -0.000355032
"Line.MDV201_HN_2_410_A819"                   0.00058,      0.0     -0.00621758
"Line.MDV201_HN_2_336_B8196"                  0.00036,      0.0     -0.00859247
"Line.MDV201_HN_2_678_C62304"                 0.00042,      0.0     -0.00805103
"Line.MDV201_HN_2_649_A28248"                 0.00247,     0.00     -0.00486709
"Line.MDV201_C_1_267_ABC8074"                 0.56001,     0.05     0.45912
"Line.MDV201_HN_2_067_ABC14836"               0.40204,     0.05     0.601574
"Line.MDV201_HN_2_031_ABC62264"               0.18374,     0.02     0.261719
"Line.MDV201_HN_2_816_ABC14879"               0.26940,     0.03     0.388875
"Line.MDV201_HN_1_401_A39574"                 0.00001,      0.0     -0.0144411
"Line.MDV201_HN_2_537_C8094"                  0.00480,     0.01     -0.00431837
"Line.MDV201_HN_2_915_ABC39576"               0.05802,     0.01     0.0217762
"Line.MDV201_HN_1_166_A39571"                 0.00611,     0.02     -0.0104208
"Line.MDV201_HN_2_229_ABC8126"                0.02341,     0.01     -0.0114982
"Line.MDV201_C_1_069_ABC69484"                0.09157,     0.01     0.24393
"Line.MDV201_102184FUSE"                      0.00000,      0.0     -0.000355868
"Line.HN_2P012_SW"                            0.00024,      0.0     0.000224404
"Line.MDV201_39759ELB"                        0.00000,      0.0     3.73136E-008
"Line.MDV201_HN_2_531_C857"                   0.00259,     0.00     -0.00126581
"Line.MDV201_HN_2_861_C39629"                 0.00050,      0.0     -0.00694905
"Line.MDV201_1144254FUSE"                     0.00000,      0.0     -0.000355581
"Line.MDV201_HN_2_487_C8099"                  0.00662,     0.01     -0.00346293
"Line.MDV201_HN_2_489_C8104"                  0.00339,     0.01     -0.00466205
"Line.MDV201_HN_1_455_A94736"                 0.00003,      0.0     -0.00232804
"Line.MDV201_DA_8_674_A6597"                  0.02147,     0.02     0.00804912
"Line.MDV201_DA_8_918_A56770"                 0.07877,     0.02     0.0774884
"Line.MDV201_HN_2_068_ABC14845"               0.21775,     0.03     0.359254
"Line.MDV201_HN_2_706_C52532"                 0.03943,     0.02     0.0303499
"Line.MDV201_HN_2_655_A14863"                 0.00096,     0.00     -0.00886762
"Line.MDV201_1000983FUSE"                     0.00005,      0.0     0.00223796
"Line.MDV201_HN_2_117_ABC28284"               0.01785,     0.01     -0.0089721
"Line.MDV201_DA_8_936_ABC67891"               0.00000,      0.0     -0.045029
"Line.MDV201_HN_2_937_B14993"                 0.01324,     0.01     0.0033137
"Line.MDV201_DA_8_697_B46390"                 0.00069,      0.0     -0.00880348
"Line.MDV201_HN_2_656_A14864"                 0.00175,     0.00     -0.0097319
"Line.MDV201_HN_2_813_ABC63654"               1.08559,     0.05     1.64662
"Line.MDV201_HN_2_428_B812"                   0.01001,     0.01     7.58574E-005
"Line.MDV201_HN_2_228_ABC810"                 0.54675,     0.02     1.19856
"Line.MDV201_100479FUSE"                      0.00000,      0.0     -0.000288027
"Line.MDV201_DA_8_729_C74452"                 0.00157,     0.00     -0.00565745
"Line.HN_2P010_SW"                            0.00056,      0.0     0.000543927
"Line.MDV201_15004ELB"                        0.00000,      0.0     8.60102E-008
"Line.MDV201_C_1_403_A21649"                  0.00353,     0.00     -0.00115899
"Line.MDV201_HN_2_722_C52525"                 0.00003,      0.0     -0.00431378
"Line.MDV201_106261FUSE"                      0.00001,      0.0     8.84057E-005
"Line.MDV201_C_1_407_A8136"                   0.00117,     0.00     -0.00418912
"Line.MDV201_HN_2_872_C63667"                 0.01648,     0.01     0.0107683
"Line.MDV201_100475FUSE"                      0.00000,      0.0     -0.000363038
"Line.MDV201_DA_8_727_C39744"                 0.02742,     0.02     0.0116178
"Line.MDV201_DA_8_257_ABC88677"               0.00000,      0.0     -0.0364443
"Line.MDV201_103730FUSE"                      0.00000,      0.0     -0.000342872
"Line.MDV201_1160476ELB-1_SW"                 0.00079,      0.0     0.000774362
"Line.MDV201_1160476ELB"                      0.00000,      0.0     1.21131E-007
"Line.MDV201_HN_2_712_A63678"                 0.00084,      0.0     -0.0061272
"Line.MDV201_HN_2_661_C62248"                 0.00025,      0.0     -0.00653337
"Line.MDV201_HN_2_924_C28267"                 0.00008,      0.0     -0.01094
"Line.MDV201_1144244FUSE"                     0.00000,      0.0     -0.000345214
"Line.MDV201_HN_2_465_C62233"                 0.01087,     0.01     0.00412216
"Line.MDV201_HN_2_943_C89813"                 0.00487,     0.01     5.20756E-005
"Line.MDV201_DA_8_971_C46408"                 0.00001,      0.0     -0.00120209
"Line.MDV201_HN_2_663_C62247"                 0.08204,     0.02     0.0814814
"Line.MDV201_HN_2_934_B15006"                 0.06029,     0.03     0.0355765
"Line.MDV201_HN_1_170_A94727"                 0.00031,      0.0     -0.00732839
"Line.MDV201_HN_2_085_ABC38388"               0.27049,     0.02     0.408912
"Line.MDV201_HN_2_877_C63672"                 0.00573,     0.01     -0.00107293
"Line.C_1P037_SW"                             0.00037,      0.0     0.000351235
"Line.MDV201_8076ELB"                         0.00000,      0.0     5.6776E-008
"Line.MDV201_1149715FUSE"                     0.00000,      0.0     -0.000345063
"Line.MDV201_HN_2_609_C28278"                 0.00000,      0.0     -0.00623281
"Line.MDV201_HN_2_624_C14866"                 0.00137,     0.00     -0.00790605
"Line.MDV201_DA_8_158_C58433"                 0.02595,     0.01     0.0116951
"Line.MDV201_1000988FUSE"                     0.00000,      0.0     -0.000352162
"Line.MDV201_HN_2_760_ABC28208"               0.00002,      0.0     -0.0214214
"Line.MDV201_C_1P029_A1160456"                0.00242,     0.00     -0.078413
"Line.MDV201_DA_8_920_A56783"                 0.00128,     0.00     -0.00907833
"Line.MDV201_1010740FUSE"                     0.00000,      0.0     2.6589E-010
"Line.MDV201_HN_2_183_ABC62261"               0.00009,      0.0     -0.0297753
...