OpenDSS/ckt5_Overload.Txt

Power Delivery Element Overload Report

SYMMETRICAL COMPONENT CURRENTS BY CIRCUIT ELEMENT 

Element                             Term    I1    IOver %Normal  %Emerg     I2    %I2/I1    I0    %I0/I1

"Transformer.MDV201_HN_2_632_C28235-1C"      1     4.2    0.33   108.7    79.7     0.0     0.0     0.0     0.0
"Transformer.MDV201_HN_2_082_ABC62250-1B"    1     4.4    0.53   114.0    83.6     0.0     0.0     0.0     0.0
"Transformer.MDV201_39754ELB-1B"             1     4.1    0.31   108.0    79.2     0.0     0.0     0.0     0.0
"Transformer.MDV201_HN_2_833_B39620-1B"      1     4.1    0.30   107.9    79.1     0.0     0.0     0.0     0.0
"Transformer.MDV201_HN_2_665_C62311-1C"      1     3.9    0.10   102.6    75.2     0.0     0.0     0.0     0.0
"Transformer.MDV201_HN_2_628_C52531-1C"      1     4.2    0.42   110.9    81.3     0.0     0.0     0.0     0.0
"Transformer.MDV201_HN_2_672_C62308-1C"      1     5.8    1.94   150.8   110.6     0.0     0.0     0.0     0.0
"Transformer.MDV201_HN_2_869_C830-1C"        1     4.6    0.76   119.8    87.8     0.0     0.0     0.0     0.0
"Transformer.MDV201_HN_2_953_B14996-1B"      1     4.3    0.43   111.3    81.6     0.0     0.0     0.0     0.0
"Transformer.MDV201_6568ELB-1B"              1     6.1    0.33   105.7    77.5     0.0     0.0     0.0     0.0
"Transformer.MDV201_HN_2_870_C831-1C"        1     3.9    0.12   103.2    75.7     0.0     0.0     0.0     0.0
